REMARK  Name = 
REMARK  9 active torsions:
REMARK  status: ('A' for Active; 'I' for Inactive)
REMARK    1  A    between atoms: C_1  and  C_2
REMARK    2  A    between atoms: C_2  and  O_3
REMARK    3  A    between atoms: C_2  and  C_4
REMARK    4  A    between atoms: C_2  and  C_15
REMARK    5  A    between atoms: C_4  and  S_5
REMARK    6  A    between atoms: S_5  and  C_8
REMARK    7  A    between atoms: N_17  and  C_18
REMARK    8  A    between atoms: C_21  and  C_22
REMARK    9  A    between atoms: C_24  and  C_25
REMARK                            x       y       z     vdW  Elec       q    Type
REMARK                         _______ _______ _______ _____ _____    ______ ____
ROOT
ATOM      1  C   UNL     1       0.370   0.566   0.285  0.00  0.00    +0.000 C 
ATOM      2  O   UNL     1       0.356   1.745  -0.071  0.00  0.00    +0.000 OA
ATOM      3  N   UNL     1       1.496  -0.175   0.596  0.00  0.00    +0.000 N 
ATOM      4  H   UNL     1       1.355  -1.117   0.942  0.00  0.00    +0.000 HD
ENDROOT
BRANCH   3   5
ATOM      5  C   UNL     1       2.842   0.247   0.541  0.00  0.00    +0.000 A 
ATOM      6  C   UNL     1       3.812  -0.672   0.956  0.00  0.00    +0.000 A 
ATOM      7  C   UNL     1       5.169  -0.336   0.933  0.00  0.00    +0.000 A 
ATOM      8  C   UNL     1       5.581   0.927   0.492  0.00  0.00    +0.000 A 
ATOM      9  C   UNL     1       4.622   1.861   0.070  0.00  0.00    +0.000 A 
ATOM     10  C   UNL     1       3.255   1.506   0.099  0.00  0.00    +0.000 A 
BRANCH   9  11
ATOM     11  C   UNL     1       5.037   3.231  -0.413  0.00  0.00    +0.000 C 
ATOM     12  F   UNL     1       5.862   3.170  -1.492  0.00  0.00    +0.000 F 
ATOM     13  F   UNL     1       3.992   4.016  -0.791  0.00  0.00    +0.000 F 
ATOM     14  F   UNL     1       5.702   3.936   0.542  0.00  0.00    +0.000 F 
ENDBRANCH   9  11
BRANCH   8  15
ATOM     15  C   UNL     1       6.986   1.229   0.487  0.00  0.00    +0.000 C 
ATOM     16  N   UNL     1       8.122   1.460   0.487  0.00  0.00    +0.000 NA
ENDBRANCH   8  15
ENDBRANCH   3   5
BRANCH   1  18
ATOM     17  C   UNL     1      -1.151  -0.666   1.853  0.00  0.00    +0.000 C 
ATOM     18  C   UNL     1      -0.983  -0.192   0.411  0.00  0.00    +0.000 C 
BRANCH  18  19
ATOM     19  O   UNL     1      -2.032   0.751   0.143  0.00  0.00    +0.000 OA
ATOM     20  H   UNL     1      -1.615   1.640   0.104  0.00  0.00    +0.000 HD
ENDBRANCH  18  19
BRANCH  18  21
ATOM     21  C   UNL     1      -1.017  -1.262  -0.675  0.00  0.00    +0.000 C 
BRANCH  21  22
ATOM     22  S   UNL     1      -2.343  -2.426  -0.610  0.00  0.00    +0.000 S 
ATOM     23  O   UNL     1      -2.274  -3.210  -1.831  0.00  0.00    +0.000 OA
ATOM     24  O   UNL     1      -2.279  -3.104   0.672  0.00  0.00    +0.000 OA
BRANCH  22  25
ATOM     25  C   UNL     1      -3.859  -1.510  -0.691  0.00  0.00    +0.000 A 
ATOM     26  C   UNL     1      -4.709  -1.461   0.420  0.00  0.00    +0.000 A 
ATOM     27  C   UNL     1      -5.908  -0.753   0.334  0.00  0.00    +0.000 A 
ATOM     28  C   UNL     1      -6.248  -0.118  -0.858  0.00  0.00    +0.000 A 
ATOM     29  F   UNL     1      -7.401   0.559  -0.936  0.00  0.00    +0.000 F 
ATOM     30  C   UNL     1      -5.415  -0.182  -1.971  0.00  0.00    +0.000 A 
ATOM     31  C   UNL     1      -4.214  -0.887  -1.894  0.00  0.00    +0.000 A 
ENDBRANCH  22  25
ENDBRANCH  21  22
ENDBRANCH  18  21
ENDBRANCH   1  18
TORSDOF 8
