REMARK  Name = 
REMARK  4 active torsions:
REMARK  status: ('A' for Active; 'I' for Inactive)
REMARK    1  A    between atoms: C_2  and  O_3
REMARK    2  A    between atoms: C_2  and  C_4
REMARK    3  A    between atoms: N_6  and  C_7
REMARK    4  A    between atoms: C_12  and  N_13
REMARK                            x       y       z     vdW  Elec       q    Type
REMARK                         _______ _______ _______ _____ _____    ______ ____
ROOT
ATOM      1  C   UNL     1      -3.829   1.558  -0.091  0.00  0.00    +0.000 A 
ATOM      2  C   UNL     1      -3.587   0.325   0.380  0.00  0.00    +0.000 A 
ATOM      3  N   UNL     1      -2.358  -0.310   0.405  0.00  0.00    +0.000 N 
ATOM      4  C   UNL     1      -1.193   0.423   0.042  0.00  0.00    +0.000 A 
ATOM      5  C   UNL     1       0.110  -0.092   0.196  0.00  0.00    +0.000 A 
ATOM      6  C   UNL     1       1.270   0.621  -0.174  0.00  0.00    +0.000 A 
ATOM      7  C   UNL     1       1.060   1.909  -0.707  0.00  0.00    +0.000 A 
ATOM      8  F   UNL     1       2.097   2.661  -1.111  0.00  0.00    +0.000 F 
ATOM      9  C   UNL     1      -0.211   2.455  -0.867  0.00  0.00    +0.000 A 
ATOM     10  C   UNL     1      -1.330   1.716  -0.489  0.00  0.00    +0.000 A 
ATOM     11  C   UNL     1      -2.682   2.309  -0.654  0.00  0.00    +0.000 A 
ATOM     12  O   UNL     1      -2.812   3.370  -1.254  0.00  0.00    +0.000 OA
ENDROOT
BRANCH   6  13
ATOM     13  N   UNL     1       2.532   0.066  -0.000  0.00  0.00    +0.000 N 
ATOM     14  C   UNL     1       3.742   0.906   0.023  0.00  0.00    +0.000 C 
ATOM     15  C   UNL     1       4.904   0.183   0.745  0.00  0.00    +0.000 C 
ATOM     16  N   UNL     1       5.277  -1.134   0.197  0.00  0.00    +0.000 NA
ATOM     17  C   UNL     1       4.137  -1.773  -0.485  0.00  0.00    +0.000 C 
ATOM     18  C   UNL     1       2.743  -1.391   0.062  0.00  0.00    +0.000 C 
ATOM     19  H   UNL     1       6.031  -1.019  -0.480  0.00  0.00    +0.000 HD
ENDBRANCH   6  13
BRANCH   3  20
ATOM     20  C   UNL     1      -2.279  -1.648   1.022  0.00  0.00    +0.000 C 
ATOM     21  C   UNL     1      -3.232  -2.761   0.657  0.00  0.00    +0.000 C 
ATOM     22  C   UNL     1      -1.797  -2.849   0.244  0.00  0.00    +0.000 C 
ENDBRANCH   3  20
BRANCH   1  24
ATOM     23  O   UNL     1      -6.212   1.367   0.028  0.00  0.00    +0.000 OA
ATOM     24  C   UNL     1      -5.206   2.058  -0.013  0.00  0.00    +0.000 C 
BRANCH  24  25
ATOM     25  O   UNL     1      -5.285   3.392   0.084  0.00  0.00    +0.000 OA
ATOM     26  H   UNL     1      -6.243   3.590   0.111  0.00  0.00    +0.000 HD
ENDBRANCH  24  25
ENDBRANCH   1  24
TORSDOF 4
