REMARK  Name = 
REMARK  6 active torsions:
REMARK  status: ('A' for Active; 'I' for Inactive)
REMARK    1  A    between atoms: C_1  and  N_2
REMARK    2  A    between atoms: N_2  and  C_3
REMARK    3  A    between atoms: N_2  and  C_4
REMARK    4  A    between atoms: C_4  and  C_5
REMARK    5  A    between atoms: C_5  and  C_6
REMARK    6  A    between atoms: C_6  and  N_7
REMARK                            x       y       z     vdW  Elec       q    Type
REMARK                         _______ _______ _______ _____ _____    ______ ____
ROOT
ATOM      1  N   UNL     1      -0.774   0.076   0.332  0.00  0.00    +0.000 N 
ATOM      2  C   UNL     1      -1.396   1.321  -0.019  0.00  0.00    +0.000 A 
ATOM      3  C   UNL     1      -0.651   2.530  -0.038  0.00  0.00    +0.000 A 
ATOM      4  C   UNL     1      -1.170   3.763  -0.459  0.00  0.00    +0.000 A 
ATOM      5  C   UNL     1      -2.478   3.847  -0.887  0.00  0.00    +0.000 A 
ATOM      6  C   UNL     1      -3.259   2.703  -0.862  0.00  0.00    +0.000 A 
ATOM      7  C   UNL     1      -2.749   1.456  -0.412  0.00  0.00    +0.000 A 
ATOM      8  C   UNL     1      -3.761   0.340  -0.363  0.00  0.00    +0.000 C 
ATOM      9  C   UNL     1      -3.655  -0.457   0.924  0.00  0.00    +0.000 C 
ATOM     10  C   UNL     1      -2.643  -1.544   0.721  0.00  0.00    +0.000 A 
ATOM     11  C   UNL     1      -3.092  -2.880   0.839  0.00  0.00    +0.000 A 
ATOM     12  C   UNL     1      -2.240  -3.951   0.603  0.00  0.00    +0.000 A 
ATOM     13  C   UNL     1      -0.931  -3.697   0.237  0.00  0.00    +0.000 A 
ATOM     14  C   UNL     1      -0.481  -2.376   0.133  0.00  0.00    +0.000 A 
ATOM     15  C   UNL     1      -1.307  -1.255   0.392  0.00  0.00    +0.000 A 
ENDROOT
BRANCH   1  16
ATOM     16  C   UNL     1       0.594   0.155   0.926  0.00  0.00    +0.000 C 
BRANCH  16  17
ATOM     17  C   UNL     1       1.706   0.234  -0.137  0.00  0.00    +0.000 C 
BRANCH  17  18
ATOM     18  C   UNL     1       3.084   0.141   0.533  0.00  0.00    +0.000 C 
BRANCH  18  20
ATOM     19  C   UNL     1       4.318  -0.677  -1.405  0.00  0.00    +0.000 C 
ATOM     20  N   UNL     1       4.202   0.378  -0.396  0.00  0.00    +0.000 NA
ATOM     21  C   UNL     1       5.459   0.487   0.349  0.00  0.00    +0.000 C 
ENDBRANCH  18  20
ENDBRANCH  17  18
ENDBRANCH  16  17
ENDBRANCH   1  16
TORSDOF 4
