REMARK  Name = 
REMARK  5 active torsions:
REMARK  status: ('A' for Active; 'I' for Inactive)
REMARK    1  A    between atoms: C_1  and  N_2
REMARK    2  A    between atoms: N_2  and  C_3
REMARK    3  A    between atoms: C_3  and  C_4
REMARK    4  A    between atoms: C_10  and  C_11
REMARK    5  A    between atoms: C_10  and  C_12
REMARK                            x       y       z     vdW  Elec       q    Type
REMARK                         _______ _______ _______ _____ _____    ______ ____
ROOT
ATOM      1  C   UNL     1       0.676   0.127   0.249  0.00  0.00    +0.000 C 
ATOM      2  C   UNL     1       1.436   0.473   1.554  0.00  0.00    +0.000 C 
ATOM      3  C   UNL     1       0.248  -1.385   0.279  0.00  0.00    +0.000 C 
ATOM      4  C   UNL     1      -0.319  -1.849  -1.081  0.00  0.00    +0.000 C 
ATOM      5  C   UNL     1      -1.705  -1.200  -1.126  0.00  0.00    +0.000 C 
ATOM      6  C   UNL     1      -1.740  -0.381   0.176  0.00  0.00    +0.000 C 
ATOM      7  C   UNL     1      -1.031  -1.356   1.121  0.00  0.00    +0.000 C 
ATOM      8  C   UNL     1      -0.757   0.844   0.137  0.00  0.00    +0.000 C 
ATOM      9  C   UNL     1      -1.092   1.790   1.315  0.00  0.00    +0.000 C 
ATOM     10  C   UNL     1      -0.952   1.692  -1.140  0.00  0.00    +0.000 C 
ENDROOT
BRANCH   1  12
ATOM     11  C   UNL     1       2.799  -0.276  -0.993  0.00  0.00    +0.000 C 
ATOM     12  N   UNL     1       1.549   0.464  -0.891  0.00  0.00    +0.000 NA
ATOM     13  H   UNL     1       1.754   1.463  -0.880  0.00  0.00    +0.000 HD
ENDBRANCH   1  12
TORSDOF 1
