REMARK  Name = 
REMARK  5 active torsions:
REMARK  status: ('A' for Active; 'I' for Inactive)
REMARK    1  A    between atoms: C_1  and  C_2
REMARK    2  A    between atoms: C_2  and  O_3
REMARK    3  A    between atoms: O_3  and  C_4
REMARK    4  A    between atoms: C_4  and  C_6
REMARK    5  A    between atoms: N_12  and  C_13
REMARK                            x       y       z     vdW  Elec       q    Type
REMARK                         _______ _______ _______ _____ _____    ______ ____
ROOT
ATOM      1  C   UNL     1       1.306   0.584   0.060  0.00  0.00    +0.000 A 
ATOM      2  N   UNL     1       1.212   1.633   0.956  0.00  0.00    +0.000 NA
ATOM      3  C   UNL     1      -0.072   1.818   1.153  0.00  0.00    +0.000 A 
ATOM      4  N   UNL     1      -0.846   0.926   0.449  0.00  0.00    +0.000 N 
ATOM      5  C   UNL     1       0.030   0.165  -0.294  0.00  0.00    +0.000 A 
ATOM      6  C   UNL     1      -0.445  -0.823  -1.278  0.00  0.00    +0.000 C 
ATOM      7  N   UNL     1      -1.096  -1.873  -0.535  0.00  0.00    +0.000 N 
ATOM      8  C   UNL     1      -0.477  -3.188  -0.569  0.00  0.00    +0.000 C 
ATOM      9  C   UNL     1      -2.336  -1.713   0.060  0.00  0.00    +0.000 C 
ATOM     10  O   UNL     1      -2.972  -2.660   0.523  0.00  0.00    +0.000 OA
ATOM     11  C   UNL     1      -2.952  -0.353   0.163  0.00  0.00    +0.000 A 
ATOM     12  C   UNL     1      -4.359  -0.339   0.137  0.00  0.00    +0.000 A 
ATOM     13  C   UNL     1      -5.058   0.837   0.373  0.00  0.00    +0.000 A 
ATOM     14  F   UNL     1      -6.396   0.830   0.339  0.00  0.00    +0.000 F 
ATOM     15  C   UNL     1      -4.389   2.018   0.656  0.00  0.00    +0.000 A 
ATOM     16  C   UNL     1      -2.995   2.028   0.695  0.00  0.00    +0.000 A 
ATOM     17  C   UNL     1      -2.264   0.850   0.434  0.00  0.00    +0.000 A 
ENDROOT
BRANCH   1  18
ATOM     18  C   UNL     1       2.581   0.052  -0.431  0.00  0.00    +0.000 C 
ATOM     19  O   UNL     1       2.665  -0.866  -1.241  0.00  0.00    +0.000 OA
BRANCH  18  20
ATOM     20  O   UNL     1       3.658   0.693   0.110  0.00  0.00    +0.000 OA
BRANCH  20  22
ATOM     21  C   UNL     1       6.012   1.009   0.355  0.00  0.00    +0.000 C 
ATOM     22  C   UNL     1       4.926   0.205  -0.334  0.00  0.00    +0.000 C 
ENDBRANCH  20  22
ENDBRANCH  18  20
ENDBRANCH   1  18
TORSDOF 3
