REMARK  Name = 
REMARK  2 active torsions:
REMARK  status: ('A' for Active; 'I' for Inactive)
REMARK    1  A    between atoms: C_1  and  N_2
REMARK    2  A    between atoms: C_7  and  C_8
REMARK                            x       y       z     vdW  Elec       q    Type
REMARK                         _______ _______ _______ _____ _____    ______ ____
ROOT
ATOM      1  C   UNL     1      -3.373   1.664   0.101  0.00  0.00    +0.000 C 
ATOM      2  N   UNL     1      -2.286   0.931  -0.535  0.00  0.00    +0.000 N 
ATOM      3  C   UNL     1      -1.914   1.354  -1.818  0.00  0.00    +0.000 C 
ATOM      4  O   UNL     1      -2.414   2.346  -2.356  0.00  0.00    +0.000 OA
ATOM      5  C   UNL     1      -0.919   0.486  -2.576  0.00  0.00    +0.000 C 
ATOM      6  N   UNL     1       0.398   0.610  -1.958  0.00  0.00    +0.000 NA
ATOM      7  C   UNL     1       0.574   0.075  -0.798  0.00  0.00    +0.000 C 
ATOM      8  C   UNL     1      -0.465  -0.718  -0.077  0.00  0.00    +0.000 A 
ATOM      9  C   UNL     1      -0.054  -1.936   0.495  0.00  0.00    +0.000 A 
ATOM     10  C   UNL     1      -0.935  -2.672   1.278  0.00  0.00    +0.000 A 
ATOM     11 CL   UNL     1      -0.423  -4.152   1.988  0.00  0.00    +0.000 Cl
ATOM     12  C   UNL     1      -2.225  -2.210   1.498  0.00  0.00    +0.000 A 
ATOM     13  C   UNL     1      -2.645  -1.012   0.909  0.00  0.00    +0.000 A 
ATOM     14  C   UNL     1      -1.786  -0.255   0.087  0.00  0.00    +0.000 A 
ENDROOT
BRANCH   7  15
ATOM     15  C   UNL     1       1.913   0.265  -0.152  0.00  0.00    +0.000 A 
ATOM     16  C   UNL     1       3.057   0.306  -0.958  0.00  0.00    +0.000 A 
ATOM     17  C   UNL     1       4.315   0.482  -0.381  0.00  0.00    +0.000 A 
ATOM     18  C   UNL     1       4.435   0.629   1.000  0.00  0.00    +0.000 A 
ATOM     19  C   UNL     1       3.297   0.609   1.806  0.00  0.00    +0.000 A 
ATOM     20  C   UNL     1       2.035   0.433   1.234  0.00  0.00    +0.000 A 
ENDBRANCH   7  15
TORSDOF 1
