REMARK  Name = 
REMARK  1 active torsions:
REMARK  status: ('A' for Active; 'I' for Inactive)
REMARK    1  A    between atoms: C_1  and  N_2
REMARK                            x       y       z     vdW  Elec       q    Type
REMARK                         _______ _______ _______ _____ _____    ______ ____
ROOT
ATOM      1  C   UNL     1       4.032   0.922  -1.069  0.00  0.00    +0.000 C 
ATOM      2  N   UNL     1       3.327   0.259   0.025  0.00  0.00    +0.000 NA
ATOM      3  C   UNL     1       2.924  -1.104  -0.368  0.00  0.00    +0.000 C 
ATOM      4  C   UNL     1       1.740  -1.666   0.451  0.00  0.00    +0.000 C 
ATOM      5  N   UNL     1       0.511  -0.845   0.289  0.00  0.00    +0.000 N 
ATOM      6  C   UNL     1      -0.691  -1.535   0.106  0.00  0.00    +0.000 A 
ATOM      7  C   UNL     1      -0.889  -2.763   0.782  0.00  0.00    +0.000 A 
ATOM      8  C   UNL     1      -2.045  -3.537   0.640  0.00  0.00    +0.000 A 
ATOM      9  C   UNL     1      -3.068  -3.098  -0.181  0.00  0.00    +0.000 A 
ATOM     10  C   UNL     1      -2.936  -1.878  -0.833  0.00  0.00    +0.000 A 
ATOM     11  C   UNL     1      -1.772  -1.085  -0.688  0.00  0.00    +0.000 A 
ATOM     12  C   UNL     1      -1.772   0.252  -1.395  0.00  0.00    +0.000 C 
ATOM     13  C   UNL     1      -1.607   1.384  -0.410  0.00  0.00    +0.000 A 
ATOM     14  C   UNL     1      -2.679   2.247  -0.132  0.00  0.00    +0.000 A 
ATOM     15  C   UNL     1      -2.556   3.229   0.846  0.00  0.00    +0.000 A 
ATOM     16  C   UNL     1      -1.370   3.345   1.563  0.00  0.00    +0.000 A 
ATOM     17  C   UNL     1      -0.298   2.489   1.294  0.00  0.00    +0.000 A 
ATOM     18  C   UNL     1      -0.390   1.506   0.294  0.00  0.00    +0.000 A 
ATOM     19  C   UNL     1       0.760   0.575  -0.091  0.00  0.00    +0.000 C 
ATOM     20  C   UNL     1       2.149   1.040   0.475  0.00  0.00    +0.000 C 
ENDROOT
TORSDOF 0
