REMARK  Name = 
REMARK  10 active torsions:
REMARK  status: ('A' for Active; 'I' for Inactive)
REMARK    1  A    between atoms: C_1  and  C_2
REMARK    2  A    between atoms: C_3  and  C_4
REMARK    3  A    between atoms: C_7  and  C_8
REMARK    4  A    between atoms: C_9  and  O_10
REMARK    5  A    between atoms: C_13  and  C_14
REMARK    6  A    between atoms: C_13  and  C_15
REMARK    7  A    between atoms: C_15  and  O_16
REMARK    8  A    between atoms: O_16  and  C_17
REMARK    9  A    between atoms: C_20  and  C_21
REMARK   10  A    between atoms: C_21  and  C_22
REMARK                            x       y       z     vdW  Elec       q    Type
REMARK                         _______ _______ _______ _____ _____    ______ ____
ROOT
ATOM      1  C   UNL     1       0.371   1.138   0.752  0.00  0.00    +0.000 C 
ENDROOT
BRANCH   1  13
ATOM      2  C   UNL     1      -6.448   2.232  -1.483  0.00  0.00    +0.000 C 
ATOM      3  C   UNL     1      -5.490   1.440  -0.630  0.00  0.00    +0.000 A 
ATOM      4  C   UNL     1      -4.111   1.746  -0.616  0.00  0.00    +0.000 A 
ATOM      5  C   UNL     1      -3.564   2.892  -1.435  0.00  0.00    +0.000 C 
ATOM      6  C   UNL     1      -3.227   0.935   0.127  0.00  0.00    +0.000 A 
ATOM      7  C   UNL     1      -3.700  -0.128   0.916  0.00  0.00    +0.000 A 
ATOM      8  C   UNL     1      -5.079  -0.424   0.922  0.00  0.00    +0.000 A 
ATOM      9  C   UNL     1      -5.629  -1.554   1.757  0.00  0.00    +0.000 C 
ATOM     10  C   UNL     1      -5.952   0.388   0.180  0.00  0.00    +0.000 A 
ATOM     11  C   UNL     1      -2.735  -0.957   1.724  0.00  0.00    +0.000 C 
ATOM     12  C   UNL     1      -1.387  -0.274   1.867  0.00  0.00    +0.000 C 
ATOM     13  C   UNL     1      -0.927   0.319   0.531  0.00  0.00    +0.000 C 
ATOM     14  C   UNL     1      -0.690  -0.759  -0.541  0.00  0.00    +0.000 C 
ATOM     15  O   UNL     1      -1.896   1.261   0.032  0.00  0.00    +0.000 OA
BRANCH  10  16
ATOM     16  O   UNL     1      -7.293   0.114   0.279  0.00  0.00    +0.000 OA
ATOM     17  H   UNL     1      -7.789   0.927   0.102  0.00  0.00    +0.000 HD
ENDBRANCH  10  16
ENDBRANCH   1  13
BRANCH   1  18
ATOM     18  O   UNL     1       1.414   0.365   1.346  0.00  0.00    +0.000 OA
BRANCH  18  19
ATOM     19  C   UNL     1       2.421  -0.140   0.578  0.00  0.00    +0.000 A 
ATOM     20  C   UNL     1       2.727   0.202  -0.736  0.00  0.00    +0.000 A 
ATOM     21  C   UNL     1       3.800  -0.413  -1.395  0.00  0.00    +0.000 A 
ATOM     22  C   UNL     1       4.587  -1.374  -0.748  0.00  0.00    +0.000 A 
ATOM     23  C   UNL     1       4.276  -1.713   0.573  0.00  0.00    +0.000 A 
ATOM     24  C   UNL     1       3.208  -1.095   1.228  0.00  0.00    +0.000 A 
BRANCH  22  25
ATOM     25  C   UNL     1       5.755  -2.022  -1.456  0.00  0.00    +0.000 C 
BRANCH  25  26
ATOM     26  C   UNL     1       7.123  -1.365  -1.240  0.00  0.00    +0.000 C 
ATOM     27  S   UNL     1       7.234   0.358  -1.837  0.00  0.00    +0.000 S 
ATOM     28  C   UNL     1       7.658   0.976  -0.261  0.00  0.00    +0.000 C 
ATOM     29  O   UNL     1       7.834   2.158  -0.019  0.00  0.00    +0.000 OA
ATOM     30  N   UNL     1       7.777  -0.036   0.630  0.00  0.00    +0.000 N 
ATOM     31  C   UNL     1       7.515  -1.308   0.221  0.00  0.00    +0.000 C 
ATOM     32  O   UNL     1       7.599  -2.281   0.958  0.00  0.00    +0.000 OA
ATOM     33  H   UNL     1       8.018   0.162   1.589  0.00  0.00    +0.000 HD
ENDBRANCH  25  26
ENDBRANCH  22  25
ENDBRANCH  18  19
ENDBRANCH   1  18
TORSDOF 6
