REMARK  Name = 
REMARK  5 active torsions:
REMARK  status: ('A' for Active; 'I' for Inactive)
REMARK    1  A    between atoms: C_1  and  C_2
REMARK    2  A    between atoms: C_2  and  N_3
REMARK    3  A    between atoms: C_5  and  C_6
REMARK    4  A    between atoms: C_6  and  O_8
REMARK    5  A    between atoms: C_15  and  N_16
REMARK                            x       y       z     vdW  Elec       q    Type
REMARK                         _______ _______ _______ _____ _____    ______ ____
ROOT
ATOM      1  N   UNL     1       2.325  -0.955   0.356  0.00  0.00    +0.000 N 
ATOM      2  C   UNL     1       3.648  -0.535   0.423  0.00  0.00    +0.000 A 
ATOM      3  C   UNL     1       4.083   0.721   0.601  0.00  0.00    +0.000 A 
ATOM      4  C   UNL     1       3.055   1.769   0.776  0.00  0.00    +0.000 A 
ATOM      5  O   UNL     1       3.331   2.927   1.071  0.00  0.00    +0.000 OA
ATOM      6  C   UNL     1       1.634   1.368   0.615  0.00  0.00    +0.000 A 
ATOM      7  C   UNL     1       0.650   2.356   0.689  0.00  0.00    +0.000 A 
ATOM      8  C   UNL     1      -0.689   2.010   0.543  0.00  0.00    +0.000 A 
ATOM      9  F   UNL     1      -1.583   3.010   0.601  0.00  0.00    +0.000 F 
ATOM     10  C   UNL     1      -1.100   0.685   0.312  0.00  0.00    +0.000 A 
ATOM     11  C   UNL     1      -0.072  -0.286   0.262  0.00  0.00    +0.000 A 
ATOM     12  C   UNL     1       1.298   0.016   0.406  0.00  0.00    +0.000 A 
ENDROOT
BRANCH  10  13
ATOM     13  N   UNL     1      -2.433   0.300   0.169  0.00  0.00    +0.000 N 
ATOM     14  C   UNL     1      -3.529   1.222   0.519  0.00  0.00    +0.000 C 
ATOM     15  C   UNL     1      -4.858   0.444   0.660  0.00  0.00    +0.000 C 
ATOM     16  N   UNL     1      -5.278  -0.326  -0.528  0.00  0.00    +0.000 NA
ATOM     17  C   UNL     1      -4.149  -0.554  -1.444  0.00  0.00    +0.000 C 
ATOM     18  C   UNL     1      -2.780  -0.790  -0.764  0.00  0.00    +0.000 C 
ATOM     19  H   UNL     1      -5.646  -1.222  -0.211  0.00  0.00    +0.000 HD
ENDBRANCH  10  13
BRANCH   1  21
ATOM     20  C   UNL     1       1.846  -2.714  -1.313  0.00  0.00    +0.000 C 
ATOM     21  C   UNL     1       2.001  -2.380   0.164  0.00  0.00    +0.000 C 
ENDBRANCH   1  21
BRANCH   3  22
ATOM     22  C   UNL     1       5.534   0.944   0.617  0.00  0.00    +0.000 C 
ATOM     23  O   UNL     1       6.379   0.104   0.882  0.00  0.00    +0.000 OA
BRANCH  22  24
ATOM     24  O   UNL     1       5.892   2.178   0.234  0.00  0.00    +0.000 OA
ATOM     25  H   UNL     1       6.867   2.194   0.306  0.00  0.00    +0.000 HD
ENDBRANCH  22  24
ENDBRANCH   3  22
TORSDOF 4
