REMARK  Name = 
REMARK  5 active torsions:
REMARK  status: ('A' for Active; 'I' for Inactive)
REMARK    1  A    between atoms: C_1  and  C_2
REMARK    2  A    between atoms: C_2  and  N_3
REMARK    3  A    between atoms: C_5  and  C_6
REMARK    4  A    between atoms: C_6  and  O_8
REMARK    5  A    between atoms: C_14  and  C_15
REMARK                            x       y       z     vdW  Elec       q    Type
REMARK                         _______ _______ _______ _____ _____    ______ ____
ROOT
ATOM      1  N   UNL     1       0.739   0.696  -0.608  0.00  0.00    +0.000 N 
ATOM      2  C   UNL     1       2.028   0.312  -0.287  0.00  0.00    +0.000 A 
ATOM      3  C   UNL     1       2.372  -0.783   0.407  0.00  0.00    +0.000 A 
ATOM      4  C   UNL     1       1.268  -1.639   0.907  0.00  0.00    +0.000 A 
ATOM      5  O   UNL     1       1.456  -2.619   1.621  0.00  0.00    +0.000 OA
ATOM      6  C   UNL     1      -0.118  -1.252   0.553  0.00  0.00    +0.000 A 
ATOM      7  C   UNL     1      -1.193  -2.039   0.973  0.00  0.00    +0.000 A 
ATOM      8  C   UNL     1      -2.486  -1.651   0.645  0.00  0.00    +0.000 A 
ATOM      9  C   UNL     1      -2.661  -0.486  -0.091  0.00  0.00    +0.000 A 
ATOM     10  C   UNL     1      -4.041  -0.032  -0.462  0.00  0.00    +0.000 C 
ATOM     11  N   UNL     1      -1.623   0.284  -0.502  0.00  0.00    +0.000 NA
ATOM     12  C   UNL     1      -0.358  -0.090  -0.188  0.00  0.00    +0.000 A 
ENDROOT
BRANCH   1  14
ATOM     13  C   UNL     1       0.158   3.078  -0.371  0.00  0.00    +0.000 C 
ATOM     14  C   UNL     1       0.422   1.930  -1.335  0.00  0.00    +0.000 C 
ENDBRANCH   1  14
BRANCH   3  15
ATOM     15  C   UNL     1       3.804  -1.033   0.617  0.00  0.00    +0.000 C 
ATOM     16  O   UNL     1       4.685  -0.190   0.576  0.00  0.00    +0.000 OA
BRANCH  15  17
ATOM     17  O   UNL     1       4.104  -2.326   0.806  0.00  0.00    +0.000 OA
ATOM     18  H   UNL     1       5.072  -2.346   0.942  0.00  0.00    +0.000 HD
ENDBRANCH  15  17
ENDBRANCH   3  15
TORSDOF 3
