
     RDKit          3D

 49 52  0  0  0  0  0  0  0  0999 V2000
    5.8392    1.1789   -2.6824 C   0  0  0  0  0  0  0  0  0  0  0  0
    5.9939    0.5793   -1.4001 O   0  0  0  0  0  0  0  0  0  0  0  0
    4.9311    0.2103   -0.5599 C   0  0  0  0  0  0  0  0  0  0  0  0
    3.5885    0.4085   -0.9255 C   0  0  0  0  0  0  0  0  0  0  0  0
    2.5553    0.0296   -0.0652 C   0  0  0  0  0  0  0  0  0  0  0  0
    1.2679    0.2313   -0.4431 N   0  0  0  0  0  0  0  0  0  0  0  0
    0.2291   -0.1212    0.3571 C   0  0  0  0  0  0  0  0  0  0  0  0
   -1.1312    0.1059   -0.0654 N   0  0  0  0  0  0  0  0  0  0  0  0
   -1.4254    0.5997   -1.4196 C   0  0  0  0  0  0  0  0  0  0  0  0
   -2.6908   -0.0698   -1.9669 C   0  0  0  0  0  0  0  0  0  0  0  0
   -3.7903   -0.0351   -0.9926 N   0  0  0  0  0  0  0  0  0  0  0  0
   -5.0722   -0.5684   -1.3754 C   0  0  0  0  0  0  0  0  0  0  0  0
   -5.1230   -1.5811   -2.1242 O   0  0  0  0  0  0  0  0  0  0  0  0
   -6.3394    0.0405   -0.9317 C   0  0  0  0  0  0  0  0  0  0  0  0
   -6.5187    1.3217   -0.4431 C   0  0  0  0  0  0  0  0  0  0  0  0
   -7.8680    1.4382   -0.1891 C   0  0  0  0  0  0  0  0  0  0  0  0
   -8.4302    0.2289   -0.5416 C   0  0  0  0  0  0  0  0  0  0  0  0
   -7.4957   -0.5807   -0.9835 O   0  0  0  0  0  0  0  0  0  0  0  0
   -3.5546    0.4665    0.3676 C   0  0  0  0  0  0  0  0  0  0  0  0
   -2.2234   -0.0674    0.9062 C   0  0  0  0  0  0  0  0  0  0  0  0
    0.4835   -0.6868    1.5665 N   0  0  0  0  0  0  0  0  0  0  0  0
    1.7479   -0.9177    2.0094 C   0  0  0  0  0  0  0  0  0  0  0  0
    1.9072   -1.5189    3.3012 N   0  0  0  0  0  0  0  0  0  0  0  0
    2.8441   -0.5583    1.1862 C   0  0  0  0  0  0  0  0  0  0  0  0
    4.1922   -0.7554    1.5479 C   0  0  0  0  0  0  0  0  0  0  0  0
    5.2339   -0.3727    0.6786 C   0  0  0  0  0  0  0  0  0  0  0  0
    6.5868   -0.5555    1.0095 O   0  0  0  0  0  0  0  0  0  0  0  0
    7.0541   -1.1315    2.2252 C   0  0  0  0  0  0  0  0  0  0  0  0
    5.2759    0.4993   -3.3563 H   0  0  0  0  0  0  0  0  0  0  0  0
    6.8418    1.3617   -3.1202 H   0  0  0  0  0  0  0  0  0  0  0  0
    5.3100    2.1506   -2.5884 H   0  0  0  0  0  0  0  0  0  0  0  0
    3.3360    0.8567   -1.8775 H   0  0  0  0  0  0  0  0  0  0  0  0
   -0.5904    0.3829   -2.1197 H   0  0  0  0  0  0  0  0  0  0  0  0
   -1.5693    1.7011   -1.3828 H   0  0  0  0  0  0  0  0  0  0  0  0
   -2.4576   -1.1275   -2.2178 H   0  0  0  0  0  0  0  0  0  0  0  0
   -3.0018    0.4526   -2.8974 H   0  0  0  0  0  0  0  0  0  0  0  0
   -5.7723    2.0924   -0.3122 H   0  0  0  0  0  0  0  0  0  0  0  0
   -8.3841    2.3070    0.1970 H   0  0  0  0  0  0  0  0  0  0  0  0
   -9.4789   -0.0274   -0.4738 H   0  0  0  0  0  0  0  0  0  0  0  0
   -3.5214    1.5769    0.3479 H   0  0  0  0  0  0  0  0  0  0  0  0
   -4.3684    0.1497    1.0558 H   0  0  0  0  0  0  0  0  0  0  0  0
   -1.9815    0.4759    1.8457 H   0  0  0  0  0  0  0  0  0  0  0  0
   -2.3313   -1.1484    1.1417 H   0  0  0  0  0  0  0  0  0  0  0  0
    1.0584   -1.7634    3.8581 H   0  0  0  0  0  0  0  0  0  0  0  0
    2.8288   -1.7319    3.7350 H   0  0  0  0  0  0  0  0  0  0  0  0
    4.4500   -1.2012    2.4921 H   0  0  0  0  0  0  0  0  0  0  0  0
    6.6831   -2.1738    2.3217 H   0  0  0  0  0  0  0  0  0  0  0  0
    6.7179   -0.5224    3.0907 H   0  0  0  0  0  0  0  0  0  0  0  0
    8.1631   -1.1498    2.2142 H   0  0  0  0  0  0  0  0  0  0  0  0
  1  2  1  0
  2  3  1  0
  3  4  2  0
  4  5  1  0
  5  6  2  0
  6  7  1  0
  7  8  1  0
  8  9  1  0
  9 10  1  0
 10 11  1  0
 11 12  1  0
 12 13  2  0
 12 14  1  0
 14 15  2  0
 15 16  1  0
 16 17  2  0
 17 18  1  0
 11 19  1  0
 19 20  1  0
  7 21  2  0
 21 22  1  0
 22 23  1  0
 22 24  2  0
 24 25  1  0
 25 26  2  0
 26 27  1  0
 27 28  1  0
 26  3  1  0
 24  5  1  0
 20  8  1  0
 18 14  1  0
  1 29  1  0
  1 30  1  0
  1 31  1  0
  4 32  1  0
  9 33  1  0
  9 34  1  0
 10 35  1  0
 10 36  1  0
 15 37  1  0
 16 38  1  0
 17 39  1  0
 19 40  1  0
 19 41  1  0
 20 42  1  0
 20 43  1  0
 23 44  1  0
 23 45  1  0
 25 46  1  0
 28 47  1  0
 28 48  1  0
 28 49  1  0
M  END
$$$$

     RDKit          3D

 26 27  0  0  0  0  0  0  0  0999 V2000
   -1.6079   -1.2153    1.4169 C   0  0  0  0  0  0  0  0  0  0  0  0
   -1.2065   -0.0011    0.6892 N   0  0  0  0  0  0  0  0  0  0  0  0
   -2.3696    0.7543    0.1928 C   0  0  0  0  0  0  0  0  0  0  0  0
   -2.1413    1.0637   -1.2825 C   0  0  0  0  0  0  0  0  0  0  0  0
   -0.6885    0.7329   -1.5340 C   0  0  0  0  0  0  0  0  0  0  0  0
   -0.3698   -0.3155   -0.4794 C   0  0  1  0  0  0  0  0  0  0  0  0
    1.0982   -0.3050   -0.1127 C   0  0  0  0  0  0  0  0  0  0  0  0
    1.6395    0.7132    0.6903 C   0  0  0  0  0  0  0  0  0  0  0  0
    3.0009    0.7133    0.9976 C   0  0  0  0  0  0  0  0  0  0  0  0
    3.8158   -0.3008    0.4927 C   0  0  0  0  0  0  0  0  0  0  0  0
    3.2838   -1.2736   -0.2933 N   0  0  0  0  0  0  0  0  0  0  0  0
    1.9606   -1.2969   -0.6068 C   0  0  0  0  0  0  0  0  0  0  0  0
   -2.2030   -0.9362    2.3125 H   0  0  0  0  0  0  0  0  0  0  0  0
   -2.2154   -1.8913    0.7744 H   0  0  0  0  0  0  0  0  0  0  0  0
   -0.7063   -1.7620    1.7675 H   0  0  0  0  0  0  0  0  0  0  0  0
   -3.3315    0.2049    0.3159 H   0  0  0  0  0  0  0  0  0  0  0  0
   -2.4427    1.7041    0.7648 H   0  0  0  0  0  0  0  0  0  0  0  0
   -2.3605    2.1282   -1.5170 H   0  0  0  0  0  0  0  0  0  0  0  0
   -2.7869    0.4089   -1.9089 H   0  0  0  0  0  0  0  0  0  0  0  0
   -0.5298    0.3420   -2.5628 H   0  0  0  0  0  0  0  0  0  0  0  0
   -0.0756    1.6506   -1.3880 H   0  0  0  0  0  0  0  0  0  0  0  0
   -0.6495   -1.3097   -0.9047 H   0  0  0  0  0  0  0  0  0  0  0  0
    1.0092    1.5053    1.0750 H   0  0  0  0  0  0  0  0  0  0  0  0
    3.4211    1.4937    1.6188 H   0  0  0  0  0  0  0  0  0  0  0  0
    4.8729   -0.3126    0.7223 H   0  0  0  0  0  0  0  0  0  0  0  0
    1.5827   -2.0886   -1.2407 H   0  0  0  0  0  0  0  0  0  0  0  0
  1  2  1  0
  2  3  1  0
  3  4  1  0
  4  5  1  0
  5  6  1  0
  6  7  1  0
  7  8  2  0
  8  9  1  0
  9 10  2  0
 10 11  1  0
 11 12  2  0
  6  2  1  0
 12  7  1  0
  1 13  1  0
  1 14  1  0
  1 15  1  0
  3 16  1  0
  3 17  1  0
  4 18  1  0
  4 19  1  0
  5 20  1  0
  5 21  1  0
  6 22  1  6
  8 23  1  0
  9 24  1  0
 10 25  1  0
 12 26  1  0
M  END
$$$$

     RDKit          3D

 46 49  0  0  0  0  0  0  0  0999 V2000
   -2.1639   -1.4222    2.4449 C   0  0  0  0  0  0  0  0  0  0  0  0
   -1.8767    0.0748    2.2892 C   0  0  0  0  0  0  0  0  0  0  0  0
   -0.3807    0.3671    2.4945 C   0  0  0  0  0  0  0  0  0  0  0  0
    0.3621   -0.0302    1.3485 O   0  0  0  0  0  0  0  0  0  0  0  0
   -0.1172    0.2255    0.0623 C   0  0  0  0  0  0  0  0  0  0  0  0
    0.7493    0.1509   -1.0388 C   0  0  0  0  0  0  0  0  0  0  0  0
    2.1026   -0.3015   -0.8599 N   0  0  0  0  0  0  0  0  0  0  0  0
    2.3243   -1.7273   -0.5936 C   0  0  0  0  0  0  0  0  0  0  0  0
    3.8155   -2.0240   -0.3768 C   0  0  0  0  0  0  0  0  0  0  0  0
    4.5001   -0.9296    0.3349 N   0  0  0  0  0  0  0  0  0  0  0  0
    4.0174   -0.7752    1.7170 C   0  0  0  0  0  0  0  0  0  0  0  0
    4.4659    0.3490   -0.4123 C   0  0  0  0  0  0  0  0  0  0  0  0
    3.2210    0.5349   -1.3054 C   0  0  0  0  0  0  0  0  0  0  0  0
    0.2705    0.4834   -2.3173 C   0  0  0  0  0  0  0  0  0  0  0  0
    1.0815    0.4015   -3.3981 F   0  0  0  0  0  0  0  0  0  0  0  0
   -1.0589    0.8716   -2.4958 C   0  0  0  0  0  0  0  0  0  0  0  0
   -1.9447    0.9077   -1.4018 C   0  0  0  0  0  0  0  0  0  0  0  0
   -3.2962    1.2586   -1.5646 C   0  0  0  0  0  0  0  0  0  0  0  0
   -3.7248    1.5939   -2.7057 O   0  0  0  0  0  0  0  0  0  0  0  0
   -4.1679    1.2295   -0.4542 C   0  0  0  0  0  0  0  0  0  0  0  0
   -5.6152    1.5499   -0.5736 C   0  0  0  0  0  0  0  0  0  0  0  0
   -6.1111    1.8919   -1.6786 O   0  0  0  0  0  0  0  0  0  0  0  0
   -6.4472    1.4689    0.5411 O   0  0  0  0  0  0  0  0  0  0  0  0
   -3.6505    0.8605    0.7991 C   0  0  0  0  0  0  0  0  0  0  0  0
   -2.3305    0.5431    0.9608 N   0  0  0  0  0  0  0  0  0  0  0  0
   -1.4727    0.5645   -0.1132 C   0  0  0  0  0  0  0  0  0  0  0  0
   -1.5680   -2.0081    1.7143 H   0  0  0  0  0  0  0  0  0  0  0  0
   -1.9079   -1.7502    3.4726 H   0  0  0  0  0  0  0  0  0  0  0  0
   -3.2443   -1.6268    2.2716 H   0  0  0  0  0  0  0  0  0  0  0  0
   -2.4305    0.6175    3.0889 H   0  0  0  0  0  0  0  0  0  0  0  0
   -0.2418    1.4578    2.6497 H   0  0  0  0  0  0  0  0  0  0  0  0
    0.0109   -0.1588    3.3904 H   0  0  0  0  0  0  0  0  0  0  0  0
    1.9522   -2.3261   -1.4563 H   0  0  0  0  0  0  0  0  0  0  0  0
    1.7551   -2.0380    0.3120 H   0  0  0  0  0  0  0  0  0  0  0  0
    3.9325   -2.9779    0.1781 H   0  0  0  0  0  0  0  0  0  0  0  0
    4.3050   -2.1717   -1.3624 H   0  0  0  0  0  0  0  0  0  0  0  0
    4.0148   -1.7540    2.2444 H   0  0  0  0  0  0  0  0  0  0  0  0
    4.7017   -0.1050    2.2815 H   0  0  0  0  0  0  0  0  0  0  0  0
    2.9964   -0.3423    1.7424 H   0  0  0  0  0  0  0  0  0  0  0  0
    5.3648    0.3901   -1.0616 H   0  0  0  0  0  0  0  0  0  0  0  0
    4.5499    1.2132    0.2775 H   0  0  0  0  0  0  0  0  0  0  0  0
    3.4802    0.2559   -2.3490 H   0  0  0  0  0  0  0  0  0  0  0  0
    2.9275    1.6079   -1.3038 H   0  0  0  0  0  0  0  0  0  0  0  0
   -1.3987    1.1162   -3.4968 H   0  0  0  0  0  0  0  0  0  0  0  0
   -7.4360    1.6734    0.4710 H   0  0  0  0  0  0  0  0  0  0  0  0
   -4.3159    0.8099    1.6558 H   0  0  0  0  0  0  0  0  0  0  0  0
  1  2  1  0
  2  3  1  0
  3  4  1  0
  4  5  1  0
  5  6  1  0
  6  7  1  0
  7  8  1  0
  8  9  1  0
  9 10  1  0
 10 11  1  0
 10 12  1  0
 12 13  1  0
  6 14  2  0
 14 15  1  0
 14 16  1  0
 16 17  2  0
 17 18  1  0
 18 19  2  0
 18 20  1  0
 20 21  1  0
 21 22  2  0
 21 23  1  0
 20 24  2  0
 24 25  1  0
 25 26  1  0
 25  2  1  0
 26  5  2  0
 13  7  1  0
 26 17  1  0
  1 27  1  0
  1 28  1  0
  1 29  1  0
  2 30  1  0
  3 31  1  0
  3 32  1  0
  8 33  1  0
  8 34  1  0
  9 35  1  0
  9 36  1  0
 11 37  1  0
 11 38  1  0
 11 39  1  0
 12 40  1  0
 12 41  1  0
 13 42  1  0
 13 43  1  0
 16 44  1  0
 23 45  1  0
 24 46  1  0
M  END
$$$$

     RDKit          3D

 29 30  0  0  0  0  0  0  0  0999 V2000
    1.3365    2.5070    1.1643 C   0  0  0  0  0  0  0  0  0  0  0  0
    0.9807    2.1261   -0.2691 C   0  0  0  0  0  0  0  0  0  0  0  0
   -0.0505    1.0735   -0.2817 N   0  0  0  0  0  0  0  0  0  0  0  0
   -1.3649    1.4467   -0.3383 C   0  0  0  0  0  0  0  0  0  0  0  0
   -2.3993    0.4963   -0.3328 C   0  0  0  0  0  0  0  0  0  0  0  0
   -3.8117    0.9584   -0.4059 C   0  0  0  0  0  0  0  0  0  0  0  0
   -4.7648    0.1333   -0.3966 O   0  0  0  0  0  0  0  0  0  0  0  0
   -4.0993    2.3189   -0.4859 O   0  0  0  0  0  0  0  0  0  0  0  0
   -2.0585   -0.8695   -0.2543 C   0  0  0  0  0  0  0  0  0  0  0  0
   -2.9596   -1.7535   -0.2494 O   0  0  0  0  0  0  0  0  0  0  0  0
   -0.7075   -1.2481   -0.1772 C   0  0  0  0  0  0  0  0  0  0  0  0
   -0.3197   -2.5967   -0.0845 C   0  0  0  0  0  0  0  0  0  0  0  0
    1.0309   -2.9330    0.0001 C   0  0  0  0  0  0  0  0  0  0  0  0
    1.9934   -1.9197   -0.0063 C   0  0  0  0  0  0  0  0  0  0  0  0
    3.4477   -2.2568    0.0801 C   0  0  0  0  0  0  0  0  0  0  0  0
    1.6040   -0.6206   -0.1014 N   0  0  0  0  0  0  0  0  0  0  0  0
    0.2937   -0.2511   -0.1879 C   0  0  0  0  0  0  0  0  0  0  0  0
    1.7386    1.6261    1.7077 H   0  0  0  0  0  0  0  0  0  0  0  0
    2.1073    3.3061    1.1583 H   0  0  0  0  0  0  0  0  0  0  0  0
    0.4351    2.8819    1.6939 H   0  0  0  0  0  0  0  0  0  0  0  0
    1.8954    1.7901   -0.8043 H   0  0  0  0  0  0  0  0  0  0  0  0
    0.6239    3.0322   -0.8076 H   0  0  0  0  0  0  0  0  0  0  0  0
   -1.6151    2.5004   -0.3875 H   0  0  0  0  0  0  0  0  0  0  0  0
   -5.0565    2.6469   -0.5361 H   0  0  0  0  0  0  0  0  0  0  0  0
   -1.0558   -3.3911   -0.0750 H   0  0  0  0  0  0  0  0  0  0  0  0
    1.3245   -3.9731    0.0716 H   0  0  0  0  0  0  0  0  0  0  0  0
    4.0614   -1.3315    0.1111 H   0  0  0  0  0  0  0  0  0  0  0  0
    3.7465   -2.8544   -0.8066 H   0  0  0  0  0  0  0  0  0  0  0  0
    3.6436   -2.8446    1.0015 H   0  0  0  0  0  0  0  0  0  0  0  0
  1  2  1  0
  2  3  1  0
  3  4  1  0
  4  5  2  0
  5  6  1  0
  6  7  2  0
  6  8  1  0
  5  9  1  0
  9 10  2  0
  9 11  1  0
 11 12  2  0
 12 13  1  0
 13 14  2  0
 14 15  1  0
 14 16  1  0
 16 17  2  0
 17  3  1  0
 17 11  1  0
  1 18  1  0
  1 19  1  0
  1 20  1  0
  2 21  1  0
  2 22  1  0
  4 23  1  0
  8 24  1  0
 12 25  1  0
 13 26  1  0
 15 27  1  0
 15 28  1  0
 15 29  1  0
M  END
$$$$

     RDKit          3D

 41 43  0  0  0  0  0  0  0  0999 V2000
   -3.8354    3.6765   -0.9275 C   0  0  0  0  0  0  0  0  0  0  0  0
   -2.4204    3.6217   -1.0761 O   0  0  0  0  0  0  0  0  0  0  0  0
   -1.6412    2.4860   -0.8116 C   0  0  0  0  0  0  0  0  0  0  0  0
   -0.2448    2.5739   -1.0067 C   0  0  0  0  0  0  0  0  0  0  0  0
    0.5892    1.4694   -0.7656 C   0  0  0  0  0  0  0  0  0  0  0  0
    0.0017    0.2871   -0.3067 C   0  0  0  0  0  0  0  0  0  0  0  0
   -1.3548    0.1918   -0.1216 C   0  0  0  0  0  0  0  0  0  0  0  0
   -2.2094    1.2680   -0.3668 C   0  0  0  0  0  0  0  0  0  0  0  0
   -1.6282   -1.1088    0.2645 C   0  0  0  0  0  0  0  0  0  0  0  0
   -2.9878   -1.7174    0.4620 C   0  0  0  0  0  0  0  0  0  0  0  0
   -3.4823   -2.2935   -0.8247 C   0  0  0  0  0  0  0  0  0  0  0  0
   -4.1141   -1.5688   -1.6394 O   0  0  0  0  0  0  0  0  0  0  0  0
   -3.2057   -3.6195   -1.1420 O   0  0  0  0  0  0  0  0  0  0  0  0
   -0.3912   -1.7612    0.2843 C   0  0  0  0  0  0  0  0  0  0  0  0
   -0.1818   -3.2253    0.5464 C   0  0  0  0  0  0  0  0  0  0  0  0
    0.6010   -0.8978   -0.0587 N   0  0  0  0  0  0  0  0  0  0  0  0
    1.9943   -1.2113   -0.2227 C   0  0  0  0  0  0  0  0  0  0  0  0
    2.3230   -2.1764   -0.9649 O   0  0  0  0  0  0  0  0  0  0  0  0
    3.0435   -0.4319    0.4768 C   0  0  0  0  0  0  0  0  0  0  0  0
    4.3779   -0.4791    0.0339 C   0  0  0  0  0  0  0  0  0  0  0  0
    5.3692    0.2540    0.6932 C   0  0  0  0  0  0  0  0  0  0  0  0
    5.0416    1.0363    1.8044 C   0  0  0  0  0  0  0  0  0  0  0  0
    6.2870    1.9554    2.6297 Cl  0  0  0  0  0  0  0  0  0  0  0  0
    3.7207    1.0819    2.2592 C   0  0  0  0  0  0  0  0  0  0  0  0
    2.7266    0.3502    1.6030 C   0  0  0  0  0  0  0  0  0  0  0  0
   -4.1897    4.6914   -1.2009 H   0  0  0  0  0  0  0  0  0  0  0  0
   -4.1166    3.4735    0.1275 H   0  0  0  0  0  0  0  0  0  0  0  0
   -4.3189    2.9375   -1.6008 H   0  0  0  0  0  0  0  0  0  0  0  0
    0.1909    3.5010   -1.3566 H   0  0  0  0  0  0  0  0  0  0  0  0
    1.6536    1.5415   -0.9431 H   0  0  0  0  0  0  0  0  0  0  0  0
   -3.2754    1.1596   -0.2252 H   0  0  0  0  0  0  0  0  0  0  0  0
   -2.9477   -2.5111    1.2356 H   0  0  0  0  0  0  0  0  0  0  0  0
   -3.7008   -0.9487    0.8282 H   0  0  0  0  0  0  0  0  0  0  0  0
   -3.5181   -4.0198   -2.0185 H   0  0  0  0  0  0  0  0  0  0  0  0
   -0.9258   -3.6072    1.2738 H   0  0  0  0  0  0  0  0  0  0  0  0
   -0.2773   -3.7879   -0.4052 H   0  0  0  0  0  0  0  0  0  0  0  0
    0.8257   -3.4015    0.9765 H   0  0  0  0  0  0  0  0  0  0  0  0
    4.6531   -1.0744   -0.8279 H   0  0  0  0  0  0  0  0  0  0  0  0
    6.3913    0.2137    0.3387 H   0  0  0  0  0  0  0  0  0  0  0  0
    3.4632    1.6813    3.1231 H   0  0  0  0  0  0  0  0  0  0  0  0
    1.7138    0.3902    1.9829 H   0  0  0  0  0  0  0  0  0  0  0  0
  1  2  1  0
  2  3  1  0
  3  4  2  0
  4  5  1  0
  5  6  2  0
  6  7  1  0
  7  8  2  0
  7  9  1  0
  9 10  1  0
 10 11  1  0
 11 12  2  0
 11 13  1  0
  9 14  2  0
 14 15  1  0
 14 16  1  0
 16 17  1  0
 17 18  2  0
 17 19  1  0
 19 20  2  0
 20 21  1  0
 21 22  2  0
 22 23  1  0
 22 24  1  0
 24 25  2  0
  8  3  1  0
 25 19  1  0
 16  6  1  0
  1 26  1  0
  1 27  1  0
  1 28  1  0
  4 29  1  0
  5 30  1  0
  8 31  1  0
 10 32  1  0
 10 33  1  0
 13 34  1  0
 15 35  1  0
 15 36  1  0
 15 37  1  0
 20 38  1  0
 21 39  1  0
 24 40  1  0
 25 41  1  0
M  END
$$$$

     RDKit          3D

 26 27  0  0  0  0  0  0  0  0999 V2000
   -2.2697    0.4135   -0.5843 C   0  0  0  0  0  0  0  0  0  0  0  0
   -0.9813   -0.2284   -0.0287 C   0  0  0  0  0  0  0  0  0  0  0  0
   -1.3686   -1.4606    0.8123 C   0  0  0  0  0  0  0  0  0  0  0  0
   -0.1054    0.7396    0.8469 C   0  0  2  0  0  0  0  0  0  0  0  0
   -0.2996    2.1988    0.5325 C   0  0  0  0  0  0  0  0  0  0  0  0
   -0.9731    2.9249    1.3116 O   0  0  0  0  0  0  0  0  0  0  0  0
    0.2297    2.7418   -0.6353 O   0  0  0  0  0  0  0  0  0  0  0  0
    1.2663    0.3751    0.5397 N   0  0  0  0  0  0  0  0  0  0  0  0
    2.2291   -0.5301    1.2077 C   0  0  0  0  0  0  0  0  0  0  0  0
    2.5900   -0.7264    2.3971 O   0  0  0  0  0  0  0  0  0  0  0  0
    2.5215   -1.1752   -0.1081 C   0  0  0  0  0  0  0  0  0  0  0  0
    1.6573   -0.1994   -0.7168 C   0  0  1  0  0  0  0  0  0  0  0  0
    0.1061   -0.7600   -1.3813 S   0  0  0  0  0  0  0  0  0  0  0  0
   -0.1988   -0.0362   -2.6631 O   0  0  0  0  0  0  0  0  0  0  0  0
    0.0764   -2.2467   -1.6079 O   0  0  0  0  0  0  0  0  0  0  0  0
   -2.8541   -0.3324   -1.1646 H   0  0  0  0  0  0  0  0  0  0  0  0
   -2.0394    1.2607   -1.2635 H   0  0  0  0  0  0  0  0  0  0  0  0
   -2.9031    0.7890    0.2479 H   0  0  0  0  0  0  0  0  0  0  0  0
   -1.9354   -2.1938    0.1991 H   0  0  0  0  0  0  0  0  0  0  0  0
   -0.4620   -1.9653    1.2105 H   0  0  0  0  0  0  0  0  0  0  0  0
   -2.0068   -1.1600    1.6710 H   0  0  0  0  0  0  0  0  0  0  0  0
   -0.2902    0.5851    1.9337 H   0  0  0  0  0  0  0  0  0  0  0  0
    0.0905    3.7187   -0.8637 H   0  0  0  0  0  0  0  0  0  0  0  0
    3.5877   -1.0547   -0.3962 H   0  0  0  0  0  0  0  0  0  0  0  0
    2.1520   -2.2217   -0.1382 H   0  0  0  0  0  0  0  0  0  0  0  0
    2.1811    0.5437   -1.3584 H   0  0  0  0  0  0  0  0  0  0  0  0
  1  2  1  0
  2  3  1  0
  2  4  1  0
  4  5  1  0
  5  6  2  0
  5  7  1  0
  4  8  1  0
  8  9  1  0
  9 10  2  0
  9 11  1  0
 11 12  1  0
 12 13  1  0
 13 14  2  0
 13 15  2  0
 13  2  1  0
 12  8  1  0
  1 16  1  0
  1 17  1  0
  1 18  1  0
  3 19  1  0
  3 20  1  0
  3 21  1  0
  4 22  1  1
  7 23  1  0
 11 24  1  0
 11 25  1  0
 12 26  1  6
M  END
$$$$

     RDKit          3D

 32 34  0  0  0  0  0  0  0  0999 V2000
   -0.5689   -0.5439    1.4861 C   0  0  0  0  0  0  0  0  0  0  0  0
   -0.1164   -0.2320    0.0394 C   0  0  2  0  0  0  0  0  0  0  0  0
   -1.1899   -0.6963   -0.9799 C   0  0  0  0  0  0  0  0  0  0  0  0
   -2.5086   -0.1266   -0.7018 N   0  0  0  0  0  0  0  0  0  0  0  0
   -3.5119   -0.7102   -0.0249 C   0  0  0  0  0  0  0  0  0  0  0  0
   -4.5488    0.1952   -0.0105 C   0  0  0  0  0  0  0  0  0  0  0  0
   -4.1491    1.2967   -0.6781 N   0  0  0  0  0  0  0  0  0  0  0  0
   -2.9084    1.0741   -1.0870 N   0  0  0  0  0  0  0  0  0  0  0  0
    1.2741   -0.8926   -0.2990 C   0  0  2  0  0  0  0  0  0  0  0  0
    1.6346   -2.1027    0.5186 C   0  0  0  0  0  0  0  0  0  0  0  0
    1.2168   -3.2396    0.1713 O   0  0  0  0  0  0  0  0  0  0  0  0
    2.3908   -1.9678    1.6798 O   0  0  0  0  0  0  0  0  0  0  0  0
    2.2656    0.1563   -0.1262 N   0  0  0  0  0  0  0  0  0  0  0  0
    3.3041    0.7094   -1.0251 C   0  0  0  0  0  0  0  0  0  0  0  0
    4.1612    0.2190   -1.8051 O   0  0  0  0  0  0  0  0  0  0  0  0
    2.8446    2.0921   -0.6880 C   0  0  0  0  0  0  0  0  0  0  0  0
    1.9332    1.4976    0.2526 C   0  0  1  0  0  0  0  0  0  0  0  0
    0.1948    1.5523   -0.0909 S   0  0  0  0  0  0  0  0  0  0  0  0
   -0.0903    2.0746   -1.4722 O   0  0  0  0  0  0  0  0  0  0  0  0
   -0.5450    2.3586    0.9399 O   0  0  0  0  0  0  0  0  0  0  0  0
    0.2318   -0.2814    2.2102 H   0  0  0  0  0  0  0  0  0  0  0  0
   -0.8165   -1.6210    1.5988 H   0  0  0  0  0  0  0  0  0  0  0  0
   -1.4712    0.0423    1.7582 H   0  0  0  0  0  0  0  0  0  0  0  0
   -1.2585   -1.8066   -0.9602 H   0  0  0  0  0  0  0  0  0  0  0  0
   -0.8855   -0.4126   -2.0108 H   0  0  0  0  0  0  0  0  0  0  0  0
   -3.4874   -1.6969    0.4190 H   0  0  0  0  0  0  0  0  0  0  0  0
   -5.5195    0.0669    0.4487 H   0  0  0  0  0  0  0  0  0  0  0  0
    1.2980   -1.1927   -1.3706 H   0  0  0  0  0  0  0  0  0  0  0  0
    2.6226   -2.7754    2.2455 H   0  0  0  0  0  0  0  0  0  0  0  0
    2.3711    2.5935   -1.5578 H   0  0  0  0  0  0  0  0  0  0  0  0
    3.6491    2.6834   -0.2006 H   0  0  0  0  0  0  0  0  0  0  0  0
    2.1832    1.6862    1.3205 H   0  0  0  0  0  0  0  0  0  0  0  0
  2  1  1  1
  2  3  1  0
  3  4  1  0
  4  5  1  0
  5  6  2  0
  6  7  1  0
  7  8  2  0
  2  9  1  0
  9 10  1  0
 10 11  2  0
 10 12  1  0
  9 13  1  0
 13 14  1  0
 14 15  2  0
 14 16  1  0
 16 17  1  0
 17 18  1  0
 18 19  2  0
 18 20  2  0
 18  2  1  0
  8  4  1  0
 17 13  1  0
  1 21  1  0
  1 22  1  0
  1 23  1  0
  3 24  1  0
  3 25  1  0
  5 26  1  0
  6 27  1  0
  9 28  1  6
 12 29  1  0
 16 30  1  0
 16 31  1  0
 17 32  1  1
M  END
$$$$

     RDKit          3D

 42 45  0  0  0  0  0  0  0  0999 V2000
   -6.1444    1.2067   -0.7137 O   0  0  0  0  0  0  0  0  0  0  0  0
   -5.1831    1.9545   -0.3863 C   0  0  0  0  0  0  0  0  0  0  0  0
   -5.4388    3.2957   -0.1124 O   0  0  0  0  0  0  0  0  0  0  0  0
   -3.8019    1.4054   -0.2980 C   0  0  0  0  0  0  0  0  0  0  0  0
   -3.5708    0.0586   -0.6164 C   0  0  0  0  0  0  0  0  0  0  0  0
   -2.3265   -0.5013   -0.5187 N   0  0  0  0  0  0  0  0  0  0  0  0
   -2.1875   -1.9326   -0.8508 C   0  0  0  0  0  0  0  0  0  0  0  0
   -3.1705   -2.8646   -0.1431 C   0  0  0  0  0  0  0  0  0  0  0  0
   -1.7292   -2.8009    0.3175 C   0  0  0  0  0  0  0  0  0  0  0  0
   -1.2332    0.2803   -0.2097 C   0  0  0  0  0  0  0  0  0  0  0  0
    0.0825   -0.2385   -0.2343 C   0  0  0  0  0  0  0  0  0  0  0  0
    1.1836    0.5573    0.1103 C   0  0  0  0  0  0  0  0  0  0  0  0
    2.5102    0.0021    0.0966 N   0  0  0  0  0  0  0  0  0  0  0  0
    3.5440    0.5720   -0.7753 C   0  0  0  0  0  0  0  0  0  0  0  0
    4.8929    0.6909   -0.0332 C   0  0  0  0  0  0  0  0  0  0  0  0
    4.9944   -0.1929    1.1436 N   0  0  0  0  0  0  0  0  0  0  0  0
    4.3063   -1.4689    0.9282 C   0  0  0  0  0  0  0  0  0  0  0  0
    2.7978   -1.2205    0.8573 C   0  0  0  0  0  0  0  0  0  0  0  0
    0.9808    1.8917    0.4812 C   0  0  0  0  0  0  0  0  0  0  0  0
    2.0289    2.6674    0.8571 F   0  0  0  0  0  0  0  0  0  0  0  0
   -0.3038    2.4325    0.4842 C   0  0  0  0  0  0  0  0  0  0  0  0
   -1.4165    1.6453    0.1302 C   0  0  0  0  0  0  0  0  0  0  0  0
   -2.7093    2.1981    0.0966 C   0  0  0  0  0  0  0  0  0  0  0  0
   -2.8832    3.4085    0.4104 O   0  0  0  0  0  0  0  0  0  0  0  0
   -6.3783    3.6699   -0.1727 H   0  0  0  0  0  0  0  0  0  0  0  0
   -4.4052   -0.5545   -0.9382 H   0  0  0  0  0  0  0  0  0  0  0  0
   -1.8436   -2.2181   -1.8676 H   0  0  0  0  0  0  0  0  0  0  0  0
   -3.8734   -2.4047    0.5837 H   0  0  0  0  0  0  0  0  0  0  0  0
   -3.4161   -3.7915   -0.7028 H   0  0  0  0  0  0  0  0  0  0  0  0
   -1.1175   -3.6789    0.0212 H   0  0  0  0  0  0  0  0  0  0  0  0
   -1.5876   -2.2713    1.2842 H   0  0  0  0  0  0  0  0  0  0  0  0
    0.2723   -1.2548   -0.5462 H   0  0  0  0  0  0  0  0  0  0  0  0
    3.2406    1.5676   -1.1662 H   0  0  0  0  0  0  0  0  0  0  0  0
    3.6687   -0.0981   -1.6535 H   0  0  0  0  0  0  0  0  0  0  0  0
    5.7200    0.4753   -0.7468 H   0  0  0  0  0  0  0  0  0  0  0  0
    5.0195    1.7391    0.3125 H   0  0  0  0  0  0  0  0  0  0  0  0
    6.0074   -0.3930    1.3163 H   0  0  0  0  0  0  0  0  0  0  0  0
    4.5242   -2.1591    1.7720 H   0  0  0  0  0  0  0  0  0  0  0  0
    4.6638   -1.9503   -0.0105 H   0  0  0  0  0  0  0  0  0  0  0  0
    2.2986   -2.0935    0.3860 H   0  0  0  0  0  0  0  0  0  0  0  0
    2.4074   -1.1034    1.8920 H   0  0  0  0  0  0  0  0  0  0  0  0
   -0.4235    3.4722    0.7638 H   0  0  0  0  0  0  0  0  0  0  0  0
  1  2  2  0
  2  3  1  0
  2  4  1  0
  4  5  2  0
  5  6  1  0
  6  7  1  0
  7  8  1  0
  8  9  1  0
  6 10  1  0
 10 11  2  0
 11 12  1  0
 12 13  1  0
 13 14  1  0
 14 15  1  0
 15 16  1  0
 16 17  1  0
 17 18  1  0
 12 19  2  0
 19 20  1  0
 19 21  1  0
 21 22  2  0
 22 23  1  0
 23 24  2  0
 23  4  1  0
  9  7  1  0
 22 10  1  0
 18 13  1  0
  3 25  1  0
  5 26  1  0
  7 27  1  0
  8 28  1  0
  8 29  1  0
  9 30  1  0
  9 31  1  0
 11 32  1  0
 14 33  1  0
 14 34  1  0
 15 35  1  0
 15 36  1  0
 16 37  1  0
 17 38  1  0
 17 39  1  0
 18 40  1  0
 18 41  1  0
 21 42  1  0
M  END
$$$$

     RDKit          3D

 41 43  0  0  0  0  0  0  0  0999 V2000
    1.5085    2.8948    1.3813 C   0  0  0  0  0  0  0  0  0  0  0  0
    1.6882    2.4896   -0.0797 C   0  0  0  0  0  0  0  0  0  0  0  0
    2.1539    1.0908   -0.1820 N   0  0  0  0  0  0  0  0  0  0  0  0
    3.5023    0.8946   -0.3148 C   0  0  0  0  0  0  0  0  0  0  0  0
    4.0570   -0.3871   -0.4299 C   0  0  0  0  0  0  0  0  0  0  0  0
    5.5308   -0.5307   -0.5843 C   0  0  0  0  0  0  0  0  0  0  0  0
    6.0648   -1.6686   -0.6806 O   0  0  0  0  0  0  0  0  0  0  0  0
    6.3438    0.5996   -0.6238 O   0  0  0  0  0  0  0  0  0  0  0  0
    3.1950   -1.4972   -0.3949 C   0  0  0  0  0  0  0  0  0  0  0  0
    3.6607   -2.6658   -0.5045 O   0  0  0  0  0  0  0  0  0  0  0  0
    1.8113   -1.3072   -0.2322 C   0  0  0  0  0  0  0  0  0  0  0  0
    0.9378   -2.4104   -0.1777 C   0  0  0  0  0  0  0  0  0  0  0  0
   -0.4313   -2.2279    0.0015 C   0  0  0  0  0  0  0  0  0  0  0  0
   -1.2381   -3.3158    0.0807 F   0  0  0  0  0  0  0  0  0  0  0  0
   -0.9589   -0.9378    0.1338 C   0  0  0  0  0  0  0  0  0  0  0  0
   -2.3703   -0.7395    0.3325 N   0  0  0  0  0  0  0  0  0  0  0  0
   -3.3390   -1.3603   -0.5803 C   0  0  0  0  0  0  0  0  0  0  0  0
   -4.5608   -0.4451   -0.8205 C   0  0  0  0  0  0  0  0  0  0  0  0
   -4.7731    0.5566    0.2414 N   0  0  0  0  0  0  0  0  0  0  0  0
   -4.3555    0.0628    1.5552 C   0  0  0  0  0  0  0  0  0  0  0  0
   -2.8353   -0.0909    1.5654 C   0  0  0  0  0  0  0  0  0  0  0  0
   -0.1001    0.1684    0.0765 C   0  0  0  0  0  0  0  0  0  0  0  0
    1.2947    0.0103   -0.1142 C   0  0  0  0  0  0  0  0  0  0  0  0
    2.4774    2.8137    1.9180 H   0  0  0  0  0  0  0  0  0  0  0  0
    0.7639    2.2431    1.8831 H   0  0  0  0  0  0  0  0  0  0  0  0
    1.1562    3.9462    1.4361 H   0  0  0  0  0  0  0  0  0  0  0  0
    2.4195    3.1867   -0.5470 H   0  0  0  0  0  0  0  0  0  0  0  0
    0.7524    2.6472   -0.6543 H   0  0  0  0  0  0  0  0  0  0  0  0
    4.1656    1.7520   -0.3349 H   0  0  0  0  0  0  0  0  0  0  0  0
    7.3480    0.5156   -0.7282 H   0  0  0  0  0  0  0  0  0  0  0  0
    1.3131   -3.4229   -0.2644 H   0  0  0  0  0  0  0  0  0  0  0  0
   -2.8604   -1.5958   -1.5567 H   0  0  0  0  0  0  0  0  0  0  0  0
   -3.6851   -2.3174   -0.1330 H   0  0  0  0  0  0  0  0  0  0  0  0
   -4.4169    0.0981   -1.7788 H   0  0  0  0  0  0  0  0  0  0  0  0
   -5.4689   -1.0791   -0.9352 H   0  0  0  0  0  0  0  0  0  0  0  0
   -5.7954    0.7781    0.2852 H   0  0  0  0  0  0  0  0  0  0  0  0
   -4.8469   -0.9107    1.7818 H   0  0  0  0  0  0  0  0  0  0  0  0
   -4.6544    0.7905    2.3408 H   0  0  0  0  0  0  0  0  0  0  0  0
   -2.5244   -0.6915    2.4472 H   0  0  0  0  0  0  0  0  0  0  0  0
   -2.3815    0.9197    1.6489 H   0  0  0  0  0  0  0  0  0  0  0  0
   -0.5485    1.1433    0.1796 H   0  0  0  0  0  0  0  0  0  0  0  0
  1  2  1  0
  2  3  1  0
  3  4  1  0
  4  5  2  0
  5  6  1  0
  6  7  2  0
  6  8  1  0
  5  9  1  0
  9 10  2  0
  9 11  1  0
 11 12  2  0
 12 13  1  0
 13 14  1  0
 13 15  2  0
 15 16  1  0
 16 17  1  0
 17 18  1  0
 18 19  1  0
 19 20  1  0
 20 21  1  0
 15 22  1  0
 22 23  2  0
 23  3  1  0
 23 11  1  0
 21 16  1  0
  1 24  1  0
  1 25  1  0
  1 26  1  0
  2 27  1  0
  2 28  1  0
  4 29  1  0
  8 30  1  0
 12 31  1  0
 17 32  1  0
 17 33  1  0
 18 34  1  0
 18 35  1  0
 19 36  1  0
 20 37  1  0
 20 38  1  0
 21 39  1  0
 21 40  1  0
 22 41  1  0
M  END
$$$$

     RDKit          3D

 23 23  0  0  0  0  0  0  0  0999 V2000
   -3.1040    0.7870    0.0785 C   0  0  0  0  0  0  0  0  0  0  0  0
   -1.7624    0.0539   -0.0395 C   0  0  0  0  0  0  0  0  0  0  0  0
   -1.7729   -1.1354    0.8170 N   0  0  0  0  0  0  0  0  0  0  0  0
   -0.6114    0.9986    0.3624 C   0  0  0  0  0  0  0  0  0  0  0  0
    0.7397    0.3962    0.0707 C   0  0  0  0  0  0  0  0  0  0  0  0
    1.2433    0.3934   -1.2411 C   0  0  0  0  0  0  0  0  0  0  0  0
    2.4868   -0.1834   -1.5173 C   0  0  0  0  0  0  0  0  0  0  0  0
    3.2334   -0.7647   -0.4888 C   0  0  0  0  0  0  0  0  0  0  0  0
    2.7369   -0.7718    0.8176 C   0  0  0  0  0  0  0  0  0  0  0  0
    1.4939   -0.1958    1.0984 C   0  0  0  0  0  0  0  0  0  0  0  0
   -3.1119    1.6853   -0.5752 H   0  0  0  0  0  0  0  0  0  0  0  0
   -3.9333    0.1215   -0.2427 H   0  0  0  0  0  0  0  0  0  0  0  0
   -3.2841    1.1017    1.1290 H   0  0  0  0  0  0  0  0  0  0  0  0
   -1.6326   -0.2547   -1.1022 H   0  0  0  0  0  0  0  0  0  0  0  0
   -0.9187   -1.7018    0.6103 H   0  0  0  0  0  0  0  0  0  0  0  0
   -2.5792   -1.7401    0.5364 H   0  0  0  0  0  0  0  0  0  0  0  0
   -0.6962    1.2536    1.4422 H   0  0  0  0  0  0  0  0  0  0  0  0
   -0.6982    1.9540   -0.2009 H   0  0  0  0  0  0  0  0  0  0  0  0
    0.6721    0.8364   -2.0476 H   0  0  0  0  0  0  0  0  0  0  0  0
    2.8708   -0.1814   -2.5292 H   0  0  0  0  0  0  0  0  0  0  0  0
    4.1953   -1.2116   -0.7044 H   0  0  0  0  0  0  0  0  0  0  0  0
    3.3142   -1.2258    1.6126 H   0  0  0  0  0  0  0  0  0  0  0  0
    1.1184   -0.2151    2.1139 H   0  0  0  0  0  0  0  0  0  0  0  0
  1  2  1  0
  2  3  1  0
  2  4  1  0
  4  5  1  0
  5  6  2  0
  6  7  1  0
  7  8  2  0
  8  9  1  0
  9 10  2  0
 10  5  1  0
  1 11  1  0
  1 12  1  0
  1 13  1  0
  2 14  1  0
  3 15  1  0
  3 16  1  0
  4 17  1  0
  4 18  1  0
  6 19  1  0
  7 20  1  0
  8 21  1  0
  9 22  1  0
 10 23  1  0
M  END
$$$$

     RDKit          3D

 24 25  0  0  0  0  0  0  0  0999 V2000
    4.1727   -0.6572   -1.2984 O   0  0  0  0  0  0  0  0  0  0  0  0
    3.9867    0.3952   -0.6524 N   0  0  0  0  0  0  0  0  0  0  0  0
    5.0686    1.1197   -0.2136 O   0  0  0  0  0  0  0  0  0  0  0  0
    2.7106    0.8572   -0.3924 O   0  0  0  0  0  0  0  0  0  0  0  0
    1.5402    0.1449   -0.7970 C   0  0  1  0  0  0  0  0  0  0  0  0
    1.2927   -1.0380    0.1206 C   0  0  0  0  0  0  0  0  0  0  0  0
    0.4582   -0.6312    1.1795 O   0  0  0  0  0  0  0  0  0  0  0  0
   -0.1668    0.5793    0.7989 C   0  0  1  0  0  0  0  0  0  0  0  0
    0.3229    0.9993   -0.5690 C   0  0  2  0  0  0  0  0  0  0  0  0
   -0.6685    0.7243   -1.5394 O   0  0  0  0  0  0  0  0  0  0  0  0
   -1.7611    0.1251   -0.8830 C   0  0  0  0  0  0  0  0  0  0  0  0
   -1.6489    0.4003    0.6033 C   0  0  1  0  0  0  0  0  0  0  0  0
   -2.1592   -0.6809    1.3847 O   0  0  0  0  0  0  0  0  0  0  0  0
   -3.5093   -0.9623    1.4666 N   0  0  0  0  0  0  0  0  0  0  0  0
   -4.3534   -0.2488    0.8855 O   0  0  0  0  0  0  0  0  0  0  0  0
   -3.9309   -2.0318    2.2193 O   0  0  0  0  0  0  0  0  0  0  0  0
    1.6298   -0.1648   -1.8624 H   0  0  0  0  0  0  0  0  0  0  0  0
    0.7851   -1.8508   -0.4434 H   0  0  0  0  0  0  0  0  0  0  0  0
    2.2432   -1.4413    0.5292 H   0  0  0  0  0  0  0  0  0  0  0  0
    0.0450    1.3594    1.5633 H   0  0  0  0  0  0  0  0  0  0  0  0
    0.5686    2.0844   -0.5970 H   0  0  0  0  0  0  0  0  0  0  0  0
   -2.7100    0.5402   -1.2838 H   0  0  0  0  0  0  0  0  0  0  0  0
   -1.7407   -0.9694   -1.0802 H   0  0  0  0  0  0  0  0  0  0  0  0
   -2.1753    1.3471    0.8610 H   0  0  0  0  0  0  0  0  0  0  0  0
  1  2  2  0
  2  3  1  0
  2  4  1  0
  4  5  1  0
  5  6  1  0
  6  7  1  0
  7  8  1  0
  8  9  1  0
  9 10  1  0
 10 11  1  0
 11 12  1  0
 12 13  1  0
 13 14  1  0
 14 15  2  0
 14 16  1  0
  9  5  1  0
 12  8  1  0
  5 17  1  6
  6 18  1  0
  6 19  1  0
  8 20  1  1
  9 21  1  1
 11 22  1  0
 11 23  1  0
 12 24  1  6
M  CHG  4   2   1   3  -1  14   1  16  -1
M  END
$$$$

     RDKit          3D

 40 43  0  0  0  0  0  0  0  0999 V2000
    3.8699   -0.9709   -1.5962 C   0  0  0  0  0  0  0  0  0  0  0  0
    3.1170   -0.7518   -0.3513 N   0  0  0  0  0  0  0  0  0  0  0  0
    3.1669    0.6710    0.0675 C   0  0  0  0  0  0  0  0  0  0  0  0
    1.9155    1.4617   -0.3354 C   0  0  0  0  0  0  0  0  0  0  0  0
    0.7015    0.8063    0.1692 N   0  0  0  0  0  0  0  0  0  0  0  0
   -0.4918    1.5969    0.3019 C   0  0  0  0  0  0  0  0  0  0  0  0
   -0.5326    2.6814    1.1915 C   0  0  0  0  0  0  0  0  0  0  0  0
   -1.6800    3.4745    1.2803 C   0  0  0  0  0  0  0  0  0  0  0  0
   -2.7908    3.1909    0.4813 C   0  0  0  0  0  0  0  0  0  0  0  0
   -2.7573    2.1132   -0.4081 C   0  0  0  0  0  0  0  0  0  0  0  0
   -1.6023    1.3215   -0.5112 C   0  0  0  0  0  0  0  0  0  0  0  0
   -1.5692    0.1106   -1.3935 C   0  0  0  0  0  0  0  0  0  0  0  0
   -1.6172   -1.1047   -0.5097 C   0  0  0  0  0  0  0  0  0  0  0  0
   -2.7685   -1.9127   -0.5378 C   0  0  0  0  0  0  0  0  0  0  0  0
   -2.9005   -2.9936    0.3326 C   0  0  0  0  0  0  0  0  0  0  0  0
   -1.8915   -3.2784    1.2484 C   0  0  0  0  0  0  0  0  0  0  0  0
   -0.7450   -2.4850    1.2962 C   0  0  0  0  0  0  0  0  0  0  0  0
   -0.5879   -1.3806    0.4348 C   0  0  0  0  0  0  0  0  0  0  0  0
    0.7513   -0.6372    0.4879 C   0  0  0  0  0  0  0  0  0  0  0  0
    1.7526   -1.3238   -0.4596 C   0  0  0  0  0  0  0  0  0  0  0  0
    3.4576   -0.3521   -2.4238 H   0  0  0  0  0  0  0  0  0  0  0  0
    3.8297   -2.0430   -1.8877 H   0  0  0  0  0  0  0  0  0  0  0  0
    4.9397   -0.7118   -1.4448 H   0  0  0  0  0  0  0  0  0  0  0  0
    4.0691    1.1881   -0.3304 H   0  0  0  0  0  0  0  0  0  0  0  0
    3.2590    0.7034    1.1746 H   0  0  0  0  0  0  0  0  0  0  0  0
    2.0049    2.4889    0.0791 H   0  0  0  0  0  0  0  0  0  0  0  0
    1.8573    1.5385   -1.4423 H   0  0  0  0  0  0  0  0  0  0  0  0
    0.3206    2.9057    1.8190 H   0  0  0  0  0  0  0  0  0  0  0  0
   -1.7092    4.3077    1.9704 H   0  0  0  0  0  0  0  0  0  0  0  0
   -3.6808    3.8021    0.5567 H   0  0  0  0  0  0  0  0  0  0  0  0
   -3.6311    1.8926   -1.0084 H   0  0  0  0  0  0  0  0  0  0  0  0
   -2.4155    0.1267   -2.1152 H   0  0  0  0  0  0  0  0  0  0  0  0
   -0.6398    0.1025   -2.0017 H   0  0  0  0  0  0  0  0  0  0  0  0
   -3.5745   -1.6999   -1.2293 H   0  0  0  0  0  0  0  0  0  0  0  0
   -3.7903   -3.6090    0.3000 H   0  0  0  0  0  0  0  0  0  0  0  0
   -1.9942   -4.1210    1.9201 H   0  0  0  0  0  0  0  0  0  0  0  0
    0.0332   -2.7430    2.0041 H   0  0  0  0  0  0  0  0  0  0  0  0
    1.1508   -0.7239    1.5234 H   0  0  0  0  0  0  0  0  0  0  0  0
    1.8087   -2.4071   -0.2151 H   0  0  0  0  0  0  0  0  0  0  0  0
    1.3647   -1.2346   -1.5007 H   0  0  0  0  0  0  0  0  0  0  0  0
  1  2  1  0
  2  3  1  0
  3  4  1  0
  4  5  1  0
  5  6  1  0
  6  7  2  0
  7  8  1  0
  8  9  2  0
  9 10  1  0
 10 11  2  0
 11 12  1  0
 12 13  1  0
 13 14  2  0
 14 15  1  0
 15 16  2  0
 16 17  1  0
 17 18  2  0
 18 19  1  0
 19 20  1  0
 20  2  1  0
 19  5  1  0
 11  6  1  0
 18 13  1  0
  1 21  1  0
  1 22  1  0
  1 23  1  0
  3 24  1  0
  3 25  1  0
  4 26  1  0
  4 27  1  0
  7 28  1  0
  8 29  1  0
  9 30  1  0
 10 31  1  0
 12 32  1  0
 12 33  1  0
 14 34  1  0
 15 35  1  0
 16 36  1  0
 17 37  1  0
 19 38  1  0
 20 39  1  0
 20 40  1  0
M  END
$$$$

     RDKit          3D

 45 47  0  0  0  0  0  0  0  0999 V2000
    3.9215   -1.7484    0.4084 C   0  0  0  0  0  0  0  0  0  0  0  0
    3.7439   -0.2976    0.2192 N   0  0  0  0  0  0  0  0  0  0  0  0
    5.0613    0.3586    0.2073 C   0  0  0  0  0  0  0  0  0  0  0  0
    3.0219   -0.0051   -1.0397 C   0  0  0  0  0  0  0  0  0  0  0  0
    1.5102   -0.2403   -0.8994 C   0  0  0  0  0  0  0  0  0  0  0  0
    0.8992    0.5958    0.2353 C   0  0  0  0  0  0  0  0  0  0  0  0
   -0.5571    0.3910    0.3174 N   0  0  0  0  0  0  0  0  0  0  0  0
   -1.4064    1.5454    0.3472 C   0  0  0  0  0  0  0  0  0  0  0  0
   -1.2835    2.4929    1.3748 C   0  0  0  0  0  0  0  0  0  0  0  0
   -2.1032    3.6248    1.3866 C   0  0  0  0  0  0  0  0  0  0  0  0
   -3.0445    3.8169    0.3717 C   0  0  0  0  0  0  0  0  0  0  0  0
   -3.1638    2.8801   -0.6593 C   0  0  0  0  0  0  0  0  0  0  0  0
   -2.3340    1.7471   -0.6800 C   0  0  0  0  0  0  0  0  0  0  0  0
   -2.4522    0.7146   -1.7597 C   0  0  0  0  0  0  0  0  0  0  0  0
   -3.1043   -0.5504   -1.2042 C   0  0  0  0  0  0  0  0  0  0  0  0
   -2.2827   -1.3771   -0.2226 C   0  0  0  0  0  0  0  0  0  0  0  0
   -2.7633   -2.6793    0.0181 C   0  0  0  0  0  0  0  0  0  0  0  0
   -2.1260   -3.5318    0.9168 C   0  0  0  0  0  0  0  0  0  0  0  0
   -1.0018   -3.0986    1.6087 C   0  0  0  0  0  0  0  0  0  0  0  0
   -0.5095   -1.8116    1.4044 C   0  0  0  0  0  0  0  0  0  0  0  0
   -1.1264   -0.9288    0.4934 C   0  0  0  0  0  0  0  0  0  0  0  0
    4.4680   -2.2061   -0.4462 H   0  0  0  0  0  0  0  0  0  0  0  0
    2.9391   -2.2492    0.5260 H   0  0  0  0  0  0  0  0  0  0  0  0
    4.4884   -1.9478    1.3434 H   0  0  0  0  0  0  0  0  0  0  0  0
    4.9386    1.4614    0.1460 H   0  0  0  0  0  0  0  0  0  0  0  0
    5.6069    0.1476    1.1524 H   0  0  0  0  0  0  0  0  0  0  0  0
    5.6760    0.0118   -0.6536 H   0  0  0  0  0  0  0  0  0  0  0  0
    3.1621    1.0612   -1.3300 H   0  0  0  0  0  0  0  0  0  0  0  0
    3.4161   -0.6210   -1.8797 H   0  0  0  0  0  0  0  0  0  0  0  0
    1.0213    0.0440   -1.8561 H   0  0  0  0  0  0  0  0  0  0  0  0
    1.3088   -1.3190   -0.7401 H   0  0  0  0  0  0  0  0  0  0  0  0
    1.3704    0.3474    1.2085 H   0  0  0  0  0  0  0  0  0  0  0  0
    1.1236    1.6674    0.0340 H   0  0  0  0  0  0  0  0  0  0  0  0
   -0.5587    2.3479    2.1660 H   0  0  0  0  0  0  0  0  0  0  0  0
   -2.0104    4.3518    2.1830 H   0  0  0  0  0  0  0  0  0  0  0  0
   -3.6820    4.6915    0.3841 H   0  0  0  0  0  0  0  0  0  0  0  0
   -3.8995    3.0384   -1.4378 H   0  0  0  0  0  0  0  0  0  0  0  0
   -3.0748    1.1033   -2.5953 H   0  0  0  0  0  0  0  0  0  0  0  0
   -1.4535    0.4774   -2.1856 H   0  0  0  0  0  0  0  0  0  0  0  0
   -3.3547   -1.1926   -2.0776 H   0  0  0  0  0  0  0  0  0  0  0  0
   -4.0688   -0.2808   -0.7198 H   0  0  0  0  0  0  0  0  0  0  0  0
   -3.6460   -3.0402   -0.4968 H   0  0  0  0  0  0  0  0  0  0  0  0
   -2.5112   -4.5298    1.0822 H   0  0  0  0  0  0  0  0  0  0  0  0
   -0.5128   -3.7596    2.3127 H   0  0  0  0  0  0  0  0  0  0  0  0
    0.3536   -1.5028    1.9768 H   0  0  0  0  0  0  0  0  0  0  0  0
  1  2  1  0
  2  3  1  0
  2  4  1  0
  4  5  1  0
  5  6  1  0
  6  7  1  0
  7  8  1  0
  8  9  2  0
  9 10  1  0
 10 11  2  0
 11 12  1  0
 12 13  2  0
 13 14  1  0
 14 15  1  0
 15 16  1  0
 16 17  2  0
 17 18  1  0
 18 19  2  0
 19 20  1  0
 20 21  2  0
 21  7  1  0
 13  8  1  0
 21 16  1  0
  1 22  1  0
  1 23  1  0
  1 24  1  0
  3 25  1  0
  3 26  1  0
  3 27  1  0
  4 28  1  0
  4 29  1  0
  5 30  1  0
  5 31  1  0
  6 32  1  0
  6 33  1  0
  9 34  1  0
 10 35  1  0
 11 36  1  0
 12 37  1  0
 14 38  1  0
 14 39  1  0
 15 40  1  0
 15 41  1  0
 17 42  1  0
 18 43  1  0
 19 44  1  0
 20 45  1  0
M  END
$$$$

     RDKit          3D

 40 42  0  0  0  0  0  0  0  0999 V2000
   -3.1732   -2.9191    0.1363 C   0  0  0  0  0  0  0  0  0  0  0  0
   -2.8147   -1.8392   -0.8874 C   0  0  0  0  0  0  0  0  0  0  0  0
   -4.0693   -1.0358   -1.3426 C   0  0  0  0  0  0  0  0  0  0  0  0
   -3.7862    0.3494   -0.8666 C   0  0  0  0  0  0  0  0  0  0  0  0
   -4.6166    1.4692   -0.9372 C   0  0  0  0  0  0  0  0  0  0  0  0
   -4.1652    2.6748   -0.3755 C   0  0  0  0  0  0  0  0  0  0  0  0
   -2.9071    2.7359    0.2546 C   0  0  0  0  0  0  0  0  0  0  0  0
   -2.0910    1.5948    0.3166 C   0  0  0  0  0  0  0  0  0  0  0  0
   -2.5524    0.4162   -0.2787 C   0  0  0  0  0  0  0  0  0  0  0  0
   -1.9146   -0.8497   -0.2927 N   0  0  0  0  0  0  0  0  0  0  0  0
   -0.5656   -1.1030    0.0184 N   0  0  0  0  0  0  0  0  0  0  0  0
    0.4921   -0.2401   -0.4256 C   0  0  0  0  0  0  0  0  0  0  0  0
    0.2731    0.5793   -1.3592 O   0  0  0  0  0  0  0  0  0  0  0  0
    1.8468   -0.3249    0.1724 C   0  0  0  0  0  0  0  0  0  0  0  0
    2.0433   -0.9227    1.4279 C   0  0  0  0  0  0  0  0  0  0  0  0
    3.3196   -0.9861    1.9889 C   0  0  0  0  0  0  0  0  0  0  0  0
    4.4213   -0.4548    1.3118 C   0  0  0  0  0  0  0  0  0  0  0  0
    5.9971   -0.5586    2.0896 Cl  0  0  0  0  0  0  0  0  0  0  0  0
    4.2433    0.1504    0.0504 C   0  0  0  0  0  0  0  0  0  0  0  0
    5.6033    0.8502   -0.8409 S   0  0  0  0  0  0  0  0  0  0  0  0
    6.0902    2.3344   -0.0990 N   0  0  0  0  0  0  0  0  0  0  0  0
    5.2001    1.1273   -2.2623 O   0  0  0  0  0  0  0  0  0  0  0  0
    6.7570   -0.1129   -0.8557 O   0  0  0  0  0  0  0  0  0  0  0  0
    2.9543    0.2179   -0.5032 C   0  0  0  0  0  0  0  0  0  0  0  0
   -3.6185   -2.4600    1.0450 H   0  0  0  0  0  0  0  0  0  0  0  0
   -2.2651   -3.4867    0.4280 H   0  0  0  0  0  0  0  0  0  0  0  0
   -3.9017   -3.6320   -0.3047 H   0  0  0  0  0  0  0  0  0  0  0  0
   -2.3235   -2.3077   -1.7684 H   0  0  0  0  0  0  0  0  0  0  0  0
   -4.1581   -1.0414   -2.4502 H   0  0  0  0  0  0  0  0  0  0  0  0
   -5.0111   -1.4118   -0.8866 H   0  0  0  0  0  0  0  0  0  0  0  0
   -5.5905    1.4082   -1.4053 H   0  0  0  0  0  0  0  0  0  0  0  0
   -4.7917    3.5563   -0.4159 H   0  0  0  0  0  0  0  0  0  0  0  0
   -2.5719    3.6631    0.7008 H   0  0  0  0  0  0  0  0  0  0  0  0
   -1.1371    1.6328    0.8250 H   0  0  0  0  0  0  0  0  0  0  0  0
   -0.3114   -2.0428    0.3951 H   0  0  0  0  0  0  0  0  0  0  0  0
    1.2109   -1.3232    1.9915 H   0  0  0  0  0  0  0  0  0  0  0  0
    3.4502   -1.4453    2.9608 H   0  0  0  0  0  0  0  0  0  0  0  0
    5.2380    2.9346   -0.0301 H   0  0  0  0  0  0  0  0  0  0  0  0
    6.3825    2.1130    0.8785 H   0  0  0  0  0  0  0  0  0  0  0  0
    2.8134    0.6900   -1.4672 H   0  0  0  0  0  0  0  0  0  0  0  0
  1  2  1  0
  2  3  1  0
  3  4  1  0
  4  5  2  0
  5  6  1  0
  6  7  2  0
  7  8  1  0
  8  9  2  0
  9 10  1  0
 10 11  1  0
 11 12  1  0
 12 13  2  0
 12 14  1  0
 14 15  2  0
 15 16  1  0
 16 17  2  0
 17 18  1  0
 17 19  1  0
 19 20  1  0
 20 21  1  0
 20 22  2  0
 20 23  2  0
 19 24  2  0
 10  2  1  0
 24 14  1  0
  9  4  1  0
  1 25  1  0
  1 26  1  0
  1 27  1  0
  2 28  1  0
  3 29  1  0
  3 30  1  0
  5 31  1  0
  6 32  1  0
  7 33  1  0
  8 34  1  0
 11 35  1  0
 15 36  1  0
 16 37  1  0
 21 38  1  0
 21 39  1  0
 24 40  1  0
M  END
$$$$

     RDKit          3D

 36 38  0  0  0  0  0  0  0  0999 V2000
    5.5520    0.9339    0.7666 C   0  0  0  0  0  0  0  0  0  0  0  0
    5.1247    0.0461   -0.3965 C   0  0  0  0  0  0  0  0  0  0  0  0
    3.8614   -0.5601   -0.1297 O   0  0  0  0  0  0  0  0  0  0  0  0
    2.6439    0.1262   -0.2079 C   0  0  0  0  0  0  0  0  0  0  0  0
    2.6157    1.3273   -0.5876 O   0  0  0  0  0  0  0  0  0  0  0  0
    1.4024   -0.5907    0.1326 C   0  0  0  0  0  0  0  0  0  0  0  0
    1.3874   -1.9154    0.3904 N   0  0  0  0  0  0  0  0  0  0  0  0
    0.0892   -2.2069    0.6124 C   0  0  0  0  0  0  0  0  0  0  0  0
   -0.7119   -1.1279    0.4964 N   0  0  0  0  0  0  0  0  0  0  0  0
    0.1048   -0.0989    0.2191 C   0  0  0  0  0  0  0  0  0  0  0  0
   -0.4053    1.2876    0.0002 C   0  0  0  0  0  0  0  0  0  0  0  0
   -1.2195    1.2901   -1.2140 N   0  0  0  0  0  0  0  0  0  0  0  0
   -0.7644    2.0235   -2.3996 C   0  0  0  0  0  0  0  0  0  0  0  0
   -2.4668    0.5620   -1.2684 C   0  0  0  0  0  0  0  0  0  0  0  0
   -3.1795    0.6475   -2.3068 O   0  0  0  0  0  0  0  0  0  0  0  0
   -2.9757   -0.2596   -0.1314 C   0  0  0  0  0  0  0  0  0  0  0  0
   -4.3661   -0.2758    0.0940 C   0  0  0  0  0  0  0  0  0  0  0  0
   -4.9219   -1.0685    1.0990 C   0  0  0  0  0  0  0  0  0  0  0  0
   -6.2623   -1.0631    1.3029 F   0  0  0  0  0  0  0  0  0  0  0  0
   -4.1016   -1.8687    1.8900 C   0  0  0  0  0  0  0  0  0  0  0  0
   -2.7233   -1.8784    1.6802 C   0  0  0  0  0  0  0  0  0  0  0  0
   -2.1401   -1.0815    0.6778 C   0  0  0  0  0  0  0  0  0  0  0  0
    5.5881    0.3391    1.7037 H   0  0  0  0  0  0  0  0  0  0  0  0
    6.5611    1.3516    0.5662 H   0  0  0  0  0  0  0  0  0  0  0  0
    4.8381    1.7740    0.8958 H   0  0  0  0  0  0  0  0  0  0  0  0
    5.8807   -0.7564   -0.5285 H   0  0  0  0  0  0  0  0  0  0  0  0
    5.0808    0.6364   -1.3375 H   0  0  0  0  0  0  0  0  0  0  0  0
   -0.2641   -3.2048    0.8379 H   0  0  0  0  0  0  0  0  0  0  0  0
   -1.0330    1.5888    0.8663 H   0  0  0  0  0  0  0  0  0  0  0  0
    0.4122    2.0301   -0.0514 H   0  0  0  0  0  0  0  0  0  0  0  0
    0.2254    2.4991   -2.2353 H   0  0  0  0  0  0  0  0  0  0  0  0
   -1.4972    2.8185   -2.6523 H   0  0  0  0  0  0  0  0  0  0  0  0
   -0.6705    1.3252   -3.2580 H   0  0  0  0  0  0  0  0  0  0  0  0
   -5.0270    0.3339   -0.5103 H   0  0  0  0  0  0  0  0  0  0  0  0
   -4.5334   -2.4835    2.6693 H   0  0  0  0  0  0  0  0  0  0  0  0
   -2.1044   -2.5003    2.3143 H   0  0  0  0  0  0  0  0  0  0  0  0
  1  2  1  0
  2  3  1  0
  3  4  1  0
  4  5  2  0
  4  6  1  0
  6  7  1  0
  7  8  2  0
  8  9  1  0
  9 10  1  0
 10 11  1  0
 11 12  1  0
 12 13  1  0
 12 14  1  0
 14 15  2  0
 14 16  1  0
 16 17  2  0
 17 18  1  0
 18 19  1  0
 18 20  2  0
 20 21  1  0
 21 22  2  0
 10  6  2  0
 22 16  1  0
 22  9  1  0
  1 23  1  0
  1 24  1  0
  1 25  1  0
  2 26  1  0
  2 27  1  0
  8 28  1  0
 11 29  1  0
 11 30  1  0
 13 31  1  0
 13 32  1  0
 13 33  1  0
 17 34  1  0
 20 35  1  0
 21 36  1  0
M  END
$$$$

     RDKit          3D

 58 61  0  0  0  0  0  0  0  0999 V2000
   -6.1131   -0.9137   -2.4486 C   0  0  0  0  0  0  0  0  0  0  0  0
   -5.0667   -0.3750   -1.4952 C   0  0  0  0  0  0  0  0  0  0  0  0
   -4.3336   -1.2500   -0.6623 C   0  0  0  0  0  0  0  0  0  0  0  0
   -4.5951   -2.7386   -0.6922 C   0  0  0  0  0  0  0  0  0  0  0  0
   -3.3824   -0.7268    0.2335 C   0  0  0  0  0  0  0  0  0  0  0  0
   -3.1456    0.6635    0.3039 C   0  0  0  0  0  0  0  0  0  0  0  0
   -3.8049    1.5330   -0.6087 C   0  0  0  0  0  0  0  0  0  0  0  0
   -3.4666    3.0080   -0.6818 C   0  0  0  0  0  0  0  0  0  0  0  0
   -4.7815    1.0074   -1.4888 C   0  0  0  0  0  0  0  0  0  0  0  0
   -5.4888    1.8421   -2.3626 O   0  0  0  0  0  0  0  0  0  0  0  0
   -2.1499    1.1979    1.3181 C   0  0  0  0  0  0  0  0  0  0  0  0
   -1.8157    0.1928    2.4273 C   0  0  0  0  0  0  0  0  0  0  0  0
   -1.5527   -1.2154    1.8563 C   0  0  0  0  0  0  0  0  0  0  0  0
   -1.4031   -2.2185    3.0099 C   0  0  0  0  0  0  0  0  0  0  0  0
   -0.2903   -1.2563    0.9660 C   0  0  0  0  0  0  0  0  0  0  0  0
    0.8568   -0.8138    1.6928 O   0  0  0  0  0  0  0  0  0  0  0  0
    2.1444   -0.6988    1.1506 C   0  0  0  0  0  0  0  0  0  0  0  0
    2.4312   -1.0258   -0.1883 C   0  0  0  0  0  0  0  0  0  0  0  0
    3.7292   -0.8843   -0.6855 C   0  0  0  0  0  0  0  0  0  0  0  0
    4.7603   -0.4191    0.1449 C   0  0  0  0  0  0  0  0  0  0  0  0
    6.1553   -0.2409   -0.3974 C   0  0  0  0  0  0  0  0  0  0  0  0
    6.4783    1.2299   -0.7025 C   0  0  0  0  0  0  0  0  0  0  0  0
    8.2603    1.3813   -1.1426 S   0  0  0  0  0  0  0  0  0  0  0  0
    7.8205    1.8643   -2.8028 C   0  0  0  0  0  0  0  0  0  0  0  0
    8.6771    2.0606   -3.7017 O   0  0  0  0  0  0  0  0  0  0  0  0
    6.4419    2.0309   -3.0419 N   0  0  0  0  0  0  0  0  0  0  0  0
    5.6955    1.7447   -1.8759 C   0  0  0  0  0  0  0  0  0  0  0  0
    4.4536    1.9456   -1.8290 O   0  0  0  0  0  0  0  0  0  0  0  0
    4.4733   -0.0930    1.4792 C   0  0  0  0  0  0  0  0  0  0  0  0
    3.1749   -0.2348    1.9763 C   0  0  0  0  0  0  0  0  0  0  0  0
   -2.6801   -1.6059    1.0743 O   0  0  0  0  0  0  0  0  0  0  0  0
   -6.8215   -0.1294   -2.7854 H   0  0  0  0  0  0  0  0  0  0  0  0
   -6.7255   -1.6987   -1.9584 H   0  0  0  0  0  0  0  0  0  0  0  0
   -5.6124   -1.3446   -3.3419 H   0  0  0  0  0  0  0  0  0  0  0  0
   -5.5468   -2.9563   -0.1642 H   0  0  0  0  0  0  0  0  0  0  0  0
   -3.7842   -3.3228   -0.2078 H   0  0  0  0  0  0  0  0  0  0  0  0
   -4.6645   -3.0989   -1.7396 H   0  0  0  0  0  0  0  0  0  0  0  0
   -4.3288    3.6088   -0.3167 H   0  0  0  0  0  0  0  0  0  0  0  0
   -2.5647    3.2921   -0.1011 H   0  0  0  0  0  0  0  0  0  0  0  0
   -3.2405    3.2906   -1.7380 H   0  0  0  0  0  0  0  0  0  0  0  0
   -5.4131    2.8508   -2.3704 H   0  0  0  0  0  0  0  0  0  0  0  0
   -2.5676    2.1000    1.8150 H   0  0  0  0  0  0  0  0  0  0  0  0
   -1.2161    1.4938    0.7933 H   0  0  0  0  0  0  0  0  0  0  0  0
   -0.9394    0.5561    3.0081 H   0  0  0  0  0  0  0  0  0  0  0  0
   -2.6809    0.1461    3.1262 H   0  0  0  0  0  0  0  0  0  0  0  0
   -1.2043   -3.2380    2.6137 H   0  0  0  0  0  0  0  0  0  0  0  0
   -2.3392   -2.2597    3.6072 H   0  0  0  0  0  0  0  0  0  0  0  0
   -0.5672   -1.9261    3.6823 H   0  0  0  0  0  0  0  0  0  0  0  0
   -0.1237   -2.2964    0.6087 H   0  0  0  0  0  0  0  0  0  0  0  0
   -0.4358   -0.6135    0.0705 H   0  0  0  0  0  0  0  0  0  0  0  0
    1.6585   -1.3835   -0.8547 H   0  0  0  0  0  0  0  0  0  0  0  0
    3.9283   -1.1285   -1.7224 H   0  0  0  0  0  0  0  0  0  0  0  0
    6.8783   -0.6190    0.3561 H   0  0  0  0  0  0  0  0  0  0  0  0
    6.2980   -0.8547   -1.3141 H   0  0  0  0  0  0  0  0  0  0  0  0
    6.2800    1.8634    0.1882 H   0  0  0  0  0  0  0  0  0  0  0  0
    6.0307    2.3774   -3.9379 H   0  0  0  0  0  0  0  0  0  0  0  0
    5.2537    0.2762    2.1323 H   0  0  0  0  0  0  0  0  0  0  0  0
    2.9657    0.0237    3.0063 H   0  0  0  0  0  0  0  0  0  0  0  0
  1  2  1  0
  2  3  2  0
  3  4  1  0
  3  5  1  0
  5  6  2  0
  6  7  1  0
  7  8  1  0
  7  9  2  0
  9 10  1  0
  6 11  1  0
 11 12  1  0
 12 13  1  0
 13 14  1  0
 13 15  1  0
 15 16  1  0
 16 17  1  0
 17 18  2  0
 18 19  1  0
 19 20  2  0
 20 21  1  0
 21 22  1  0
 22 23  1  0
 23 24  1  0
 24 25  2  0
 24 26  1  0
 26 27  1  0
 27 28  2  0
 20 29  1  0
 29 30  2  0
 13 31  1  0
  9  2  1  0
 30 17  1  0
 31  5  1  0
 27 22  1  0
  1 32  1  0
  1 33  1  0
  1 34  1  0
  4 35  1  0
  4 36  1  0
  4 37  1  0
  8 38  1  0
  8 39  1  0
  8 40  1  0
 10 41  1  0
 11 42  1  0
 11 43  1  0
 12 44  1  0
 12 45  1  0
 14 46  1  0
 14 47  1  0
 14 48  1  0
 15 49  1  0
 15 50  1  0
 18 51  1  0
 19 52  1  0
 21 53  1  0
 21 54  1  0
 22 55  1  0
 26 56  1  0
 29 57  1  0
 30 58  1  0
M  END
$$$$

     RDKit          3D

 43 44  0  0  0  0  0  0  0  0999 V2000
   -0.4763   -0.9280    3.1332 C   0  0  0  0  0  0  0  0  0  0  0  0
   -0.5755    0.3325    2.2460 C   0  0  0  0  0  0  0  0  0  0  0  0
   -1.0807    1.4087    3.0045 O   0  0  0  0  0  0  0  0  0  0  0  0
   -1.5216    0.0985    1.0424 C   0  0  0  0  0  0  0  0  0  0  0  0
   -3.2181   -0.2713    1.4967 S   0  0  0  0  0  0  0  0  0  0  0  0
   -3.7120    0.6815    2.5494 O   0  0  0  0  0  0  0  0  0  0  0  0
   -3.3183   -1.6740    2.0282 O   0  0  0  0  0  0  0  0  0  0  0  0
   -4.2237   -0.1241    0.0594 C   0  0  0  0  0  0  0  0  0  0  0  0
   -4.4155   -1.2285   -0.7835 C   0  0  0  0  0  0  0  0  0  0  0  0
   -5.2004   -1.1057   -1.9345 C   0  0  0  0  0  0  0  0  0  0  0  0
   -5.7919    0.1209   -2.2516 C   0  0  0  0  0  0  0  0  0  0  0  0
   -6.5516    0.2390   -3.3683 F   0  0  0  0  0  0  0  0  0  0  0  0
   -5.5959    1.2269   -1.4188 C   0  0  0  0  0  0  0  0  0  0  0  0
   -4.8115    1.1067   -0.2672 C   0  0  0  0  0  0  0  0  0  0  0  0
    0.8030    0.6879    1.7107 C   0  0  0  0  0  0  0  0  0  0  0  0
    1.3411    1.7782    2.0489 O   0  0  0  0  0  0  0  0  0  0  0  0
    1.5118   -0.2239    0.8519 N   0  0  0  0  0  0  0  0  0  0  0  0
    2.6796    0.1337    0.0929 C   0  0  0  0  0  0  0  0  0  0  0  0
    2.8195    1.4103   -0.4720 C   0  0  0  0  0  0  0  0  0  0  0  0
    3.9492    1.7273   -1.2261 C   0  0  0  0  0  0  0  0  0  0  0  0
    4.9514    0.7734   -1.4406 C   0  0  0  0  0  0  0  0  0  0  0  0
    6.1013    1.1505   -2.2284 C   0  0  0  0  0  0  0  0  0  0  0  0
    7.0227    1.4532   -2.8599 N   0  0  0  0  0  0  0  0  0  0  0  0
    4.8182   -0.5273   -0.8985 C   0  0  0  0  0  0  0  0  0  0  0  0
    5.8858   -1.5790   -1.1285 C   0  0  0  0  0  0  0  0  0  0  0  0
    7.0919   -1.1350   -0.6171 F   0  0  0  0  0  0  0  0  0  0  0  0
    5.5696   -2.7791   -0.5150 F   0  0  0  0  0  0  0  0  0  0  0  0
    6.0254   -1.8087   -2.4853 F   0  0  0  0  0  0  0  0  0  0  0  0
    3.6698   -0.8316   -0.1402 C   0  0  0  0  0  0  0  0  0  0  0  0
    0.3590   -0.8268    3.8594 H   0  0  0  0  0  0  0  0  0  0  0  0
   -1.4098   -1.0662    3.7176 H   0  0  0  0  0  0  0  0  0  0  0  0
   -0.3043   -1.8398    2.5232 H   0  0  0  0  0  0  0  0  0  0  0  0
   -0.5228    1.5019    3.8217 H   0  0  0  0  0  0  0  0  0  0  0  0
   -1.5340    1.0118    0.4084 H   0  0  0  0  0  0  0  0  0  0  0  0
   -1.1506   -0.7374    0.4116 H   0  0  0  0  0  0  0  0  0  0  0  0
   -3.9560   -2.1812   -0.5529 H   0  0  0  0  0  0  0  0  0  0  0  0
   -5.3473   -1.9612   -2.5812 H   0  0  0  0  0  0  0  0  0  0  0  0
   -6.0492    2.1782   -1.6659 H   0  0  0  0  0  0  0  0  0  0  0  0
   -4.6603    1.9720    0.3654 H   0  0  0  0  0  0  0  0  0  0  0  0
    1.2068   -1.2224    0.8286 H   0  0  0  0  0  0  0  0  0  0  0  0
    2.0451    2.1564   -0.3533 H   0  0  0  0  0  0  0  0  0  0  0  0
    4.0376    2.7201   -1.6517 H   0  0  0  0  0  0  0  0  0  0  0  0
    3.5386   -1.8183    0.2852 H   0  0  0  0  0  0  0  0  0  0  0  0
  1  2  1  0
  2  3  1  0
  2  4  1  0
  4  5  1  0
  5  6  2  0
  5  7  2  0
  5  8  1  0
  8  9  2  0
  9 10  1  0
 10 11  2  0
 11 12  1  0
 11 13  1  0
 13 14  2  0
  2 15  1  0
 15 16  2  0
 15 17  1  0
 17 18  1  0
 18 19  2  0
 19 20  1  0
 20 21  2  0
 21 22  1  0
 22 23  3  0
 21 24  1  0
 24 25  1  0
 25 26  1  0
 25 27  1  0
 25 28  1  0
 24 29  2  0
 14  8  1  0
 29 18  1  0
  1 30  1  0
  1 31  1  0
  1 32  1  0
  3 33  1  0
  4 34  1  0
  4 35  1  0
  9 36  1  0
 10 37  1  0
 13 38  1  0
 14 39  1  0
 17 40  1  0
 19 41  1  0
 20 42  1  0
 29 43  1  0
M  END
$$$$

     RDKit          3D

 33 35  0  0  0  0  0  0  0  0999 V2000
   -3.3169   -0.2740    1.5092 C   0  0  0  0  0  0  0  0  0  0  0  0
   -2.3556   -0.6935    0.4848 N   0  0  0  0  0  0  0  0  0  0  0  0
   -2.1426   -2.0996    0.2534 C   0  0  0  0  0  0  0  0  0  0  0  0
   -2.8827   -2.9551    0.8116 O   0  0  0  0  0  0  0  0  0  0  0  0
   -1.0346   -2.5650   -0.6373 C   0  0  0  0  0  0  0  0  0  0  0  0
    0.2269   -2.0094   -0.1632 N   0  0  0  0  0  0  0  0  0  0  0  0
    0.5366   -0.7434   -0.1716 C   0  0  0  0  0  0  0  0  0  0  0  0
    1.8651   -0.3363    0.3575 C   0  0  0  0  0  0  0  0  0  0  0  0
    2.0508    0.9335    0.9382 C   0  0  0  0  0  0  0  0  0  0  0  0
    3.3004    1.3065    1.4422 C   0  0  0  0  0  0  0  0  0  0  0  0
    4.3754    0.4173    1.3797 C   0  0  0  0  0  0  0  0  0  0  0  0
    4.2021   -0.8486    0.8163 C   0  0  0  0  0  0  0  0  0  0  0  0
    2.9546   -1.2272    0.3108 C   0  0  0  0  0  0  0  0  0  0  0  0
   -0.3991    0.2760   -0.7299 C   0  0  0  0  0  0  0  0  0  0  0  0
    0.1099    1.2538   -1.6048 C   0  0  0  0  0  0  0  0  0  0  0  0
   -0.7238    2.2383   -2.1386 C   0  0  0  0  0  0  0  0  0  0  0  0
   -0.0676    3.4499   -3.2242 Cl  0  0  0  0  0  0  0  0  0  0  0  0
   -2.0788    2.2566   -1.8106 C   0  0  0  0  0  0  0  0  0  0  0  0
   -2.6038    1.2909   -0.9516 C   0  0  0  0  0  0  0  0  0  0  0  0
   -1.7801    0.2904   -0.4028 C   0  0  0  0  0  0  0  0  0  0  0  0
   -3.1369    0.7817    1.8058 H   0  0  0  0  0  0  0  0  0  0  0  0
   -3.2077   -0.9007    2.4198 H   0  0  0  0  0  0  0  0  0  0  0  0
   -4.3507   -0.3738    1.1167 H   0  0  0  0  0  0  0  0  0  0  0  0
   -0.9670   -3.6734   -0.6151 H   0  0  0  0  0  0  0  0  0  0  0  0
   -1.2260   -2.2514   -1.6863 H   0  0  0  0  0  0  0  0  0  0  0  0
    1.2280    1.6330    1.0152 H   0  0  0  0  0  0  0  0  0  0  0  0
    3.4339    2.2846    1.8860 H   0  0  0  0  0  0  0  0  0  0  0  0
    5.3417    0.7080    1.7711 H   0  0  0  0  0  0  0  0  0  0  0  0
    5.0355   -1.5378    0.7705 H   0  0  0  0  0  0  0  0  0  0  0  0
    2.8451   -2.2116   -0.1271 H   0  0  0  0  0  0  0  0  0  0  0  0
    1.1585    1.2482   -1.8772 H   0  0  0  0  0  0  0  0  0  0  0  0
   -2.7290    3.0165   -2.2251 H   0  0  0  0  0  0  0  0  0  0  0  0
   -3.6616    1.3155   -0.7233 H   0  0  0  0  0  0  0  0  0  0  0  0
  1  2  1  0
  2  3  1  0
  3  4  2  0
  3  5  1  0
  5  6  1  0
  6  7  2  0
  7  8  1  0
  8  9  2  0
  9 10  1  0
 10 11  2  0
 11 12  1  0
 12 13  2  0
  7 14  1  0
 14 15  2  0
 15 16  1  0
 16 17  1  0
 16 18  2  0
 18 19  1  0
 19 20  2  0
 20  2  1  0
 13  8  1  0
 20 14  1  0
  1 21  1  0
  1 22  1  0
  1 23  1  0
  5 24  1  0
  5 25  1  0
  9 26  1  0
 10 27  1  0
 11 28  1  0
 12 29  1  0
 13 30  1  0
 15 31  1  0
 18 32  1  0
 19 33  1  0
M  END
$$$$

     RDKit          3D

 44 44  0  0  0  0  0  0  0  0999 V2000
    6.7139   -0.3721   -0.9839 C   0  0  0  0  0  0  0  0  0  0  0  0
    5.7761    0.1340   -0.0597 O   0  0  0  0  0  0  0  0  0  0  0  0
    5.7040   -0.7024    1.0812 C   0  0  0  0  0  0  0  0  0  0  0  0
    4.5788   -1.7342    0.9381 C   0  0  0  0  0  0  0  0  0  0  0  0
    3.2453   -1.0664    0.7259 C   0  0  0  0  0  0  0  0  0  0  0  0
    2.7650   -0.8380   -0.5729 C   0  0  0  0  0  0  0  0  0  0  0  0
    1.5416   -0.1909   -0.7704 C   0  0  0  0  0  0  0  0  0  0  0  0
    0.7834    0.2451    0.3329 C   0  0  0  0  0  0  0  0  0  0  0  0
   -0.4495    0.8971    0.1886 O   0  0  0  0  0  0  0  0  0  0  0  0
   -1.0748    1.1750   -1.0631 C   0  0  0  0  0  0  0  0  0  0  0  0
   -2.4236    1.8826   -0.8473 C   0  0  0  0  0  0  0  0  0  0  0  0
   -2.2191    3.1803   -0.3468 O   0  0  0  0  0  0  0  0  0  0  0  0
   -3.3841    1.0983    0.0700 C   0  0  0  0  0  0  0  0  0  0  0  0
   -3.7629   -0.1848   -0.5438 N   0  0  0  0  0  0  0  0  0  0  0  0
   -4.9502   -0.7724    0.1102 C   0  0  0  0  0  0  0  0  0  0  0  0
   -6.2282   -0.2218   -0.5365 C   0  0  0  0  0  0  0  0  0  0  0  0
   -4.9341   -2.3034   -0.0194 C   0  0  0  0  0  0  0  0  0  0  0  0
    1.2710    0.0256    1.6262 C   0  0  0  0  0  0  0  0  0  0  0  0
    2.4942   -0.6211    1.8242 C   0  0  0  0  0  0  0  0  0  0  0  0
    7.7449   -0.3192   -0.5698 H   0  0  0  0  0  0  0  0  0  0  0  0
    6.4697   -1.4140   -1.2865 H   0  0  0  0  0  0  0  0  0  0  0  0
    6.6852    0.2573   -1.8968 H   0  0  0  0  0  0  0  0  0  0  0  0
    6.6644   -1.2225    1.3104 H   0  0  0  0  0  0  0  0  0  0  0  0
    5.4871   -0.0623    1.9631 H   0  0  0  0  0  0  0  0  0  0  0  0
    4.8024   -2.4236    0.0958 H   0  0  0  0  0  0  0  0  0  0  0  0
    4.5415   -2.3570    1.8584 H   0  0  0  0  0  0  0  0  0  0  0  0
    3.3399   -1.1588   -1.4331 H   0  0  0  0  0  0  0  0  0  0  0  0
    1.1974   -0.0317   -1.7831 H   0  0  0  0  0  0  0  0  0  0  0  0
   -0.4155    1.8334   -1.6697 H   0  0  0  0  0  0  0  0  0  0  0  0
   -1.2325    0.2291   -1.6244 H   0  0  0  0  0  0  0  0  0  0  0  0
   -2.9115    1.9846   -1.8413 H   0  0  0  0  0  0  0  0  0  0  0  0
   -1.8167    3.0949    0.5571 H   0  0  0  0  0  0  0  0  0  0  0  0
   -4.2816    1.7333    0.2321 H   0  0  0  0  0  0  0  0  0  0  0  0
   -2.9149    0.9243    1.0649 H   0  0  0  0  0  0  0  0  0  0  0  0
   -2.9491   -0.8312   -0.4142 H   0  0  0  0  0  0  0  0  0  0  0  0
   -4.9643   -0.5315    1.1986 H   0  0  0  0  0  0  0  0  0  0  0  0
   -6.3039    0.8752   -0.3927 H   0  0  0  0  0  0  0  0  0  0  0  0
   -7.1253   -0.6850   -0.0727 H   0  0  0  0  0  0  0  0  0  0  0  0
   -6.2343   -0.4378   -1.6265 H   0  0  0  0  0  0  0  0  0  0  0  0
   -5.8429   -2.7413    0.4463 H   0  0  0  0  0  0  0  0  0  0  0  0
   -4.8949   -2.6033   -1.0887 H   0  0  0  0  0  0  0  0  0  0  0  0
   -4.0478   -2.7219    0.5034 H   0  0  0  0  0  0  0  0  0  0  0  0
    0.6993    0.3605    2.4824 H   0  0  0  0  0  0  0  0  0  0  0  0
    2.8568   -0.7735    2.8333 H   0  0  0  0  0  0  0  0  0  0  0  0
  1  2  1  0
  2  3  1  0
  3  4  1  0
  4  5  1  0
  5  6  2  0
  6  7  1  0
  7  8  2  0
  8  9  1  0
  9 10  1  0
 10 11  1  0
 11 12  1  0
 11 13  1  0
 13 14  1  0
 14 15  1  0
 15 16  1  0
 15 17  1  0
  8 18  1  0
 18 19  2  0
 19  5  1  0
  1 20  1  0
  1 21  1  0
  1 22  1  0
  3 23  1  0
  3 24  1  0
  4 25  1  0
  4 26  1  0
  6 27  1  0
  7 28  1  0
 10 29  1  0
 10 30  1  0
 11 31  1  0
 12 32  1  0
 13 33  1  0
 13 34  1  0
 14 35  1  0
 15 36  1  0
 16 37  1  0
 16 38  1  0
 16 39  1  0
 17 40  1  0
 17 41  1  0
 17 42  1  0
 18 43  1  0
 19 44  1  0
M  END
$$$$

     RDKit          3D

 40 41  0  0  0  0  0  0  0  0999 V2000
   -0.4847   -2.5864    0.8132 C   0  0  0  0  0  0  0  0  0  0  0  0
   -0.3962   -1.2022    1.4489 C   0  0  0  0  0  0  0  0  0  0  0  0
   -0.5261   -0.1072    0.4091 C   0  0  0  0  0  0  0  0  0  0  0  0
    0.5543    0.4482   -0.2033 C   0  0  0  0  0  0  0  0  0  0  0  0
    0.4252    1.5529   -1.2329 C   0  0  0  0  0  0  0  0  0  0  0  0
    0.3526    0.9883   -2.6485 C   0  0  0  0  0  0  0  0  0  0  0  0
    1.9259   -0.0068    0.1066 C   0  0  0  0  0  0  0  0  0  0  0  0
    2.5132   -1.0453   -0.6308 C   0  0  0  0  0  0  0  0  0  0  0  0
    3.8139   -1.4660   -0.3378 C   0  0  0  0  0  0  0  0  0  0  0  0
    4.5390   -0.8490    0.6874 C   0  0  0  0  0  0  0  0  0  0  0  0
    5.8337   -1.2787    0.9690 O   0  0  0  0  0  0  0  0  0  0  0  0
    3.9572    0.1954    1.4199 C   0  0  0  0  0  0  0  0  0  0  0  0
    2.6565    0.6172    1.1284 C   0  0  0  0  0  0  0  0  0  0  0  0
   -1.8989    0.3333    0.0839 C   0  0  0  0  0  0  0  0  0  0  0  0
   -2.4919    1.3736    0.8141 C   0  0  0  0  0  0  0  0  0  0  0  0
   -3.7932    1.7884    0.5152 C   0  0  0  0  0  0  0  0  0  0  0  0
   -4.5131    1.1614   -0.5116 C   0  0  0  0  0  0  0  0  0  0  0  0
   -5.8099    1.5663   -0.8194 O   0  0  0  0  0  0  0  0  0  0  0  0
   -3.9253    0.1177   -1.2346 C   0  0  0  0  0  0  0  0  0  0  0  0
   -2.6243   -0.2984   -0.9368 C   0  0  0  0  0  0  0  0  0  0  0  0
    0.3075   -2.7187    0.0483 H   0  0  0  0  0  0  0  0  0  0  0  0
   -1.4780   -2.7315    0.3390 H   0  0  0  0  0  0  0  0  0  0  0  0
   -0.3528   -3.3625    1.5961 H   0  0  0  0  0  0  0  0  0  0  0  0
   -1.2146   -1.1027    2.1950 H   0  0  0  0  0  0  0  0  0  0  0  0
    0.5527   -1.1157    2.0184 H   0  0  0  0  0  0  0  0  0  0  0  0
    1.3074    2.2262   -1.1655 H   0  0  0  0  0  0  0  0  0  0  0  0
   -0.4640    2.1893   -1.0414 H   0  0  0  0  0  0  0  0  0  0  0  0
    0.2254    1.8202   -3.3728 H   0  0  0  0  0  0  0  0  0  0  0  0
    1.2891    0.4466   -2.8974 H   0  0  0  0  0  0  0  0  0  0  0  0
   -0.5077    0.2961   -2.7516 H   0  0  0  0  0  0  0  0  0  0  0  0
    1.9639   -1.5295   -1.4286 H   0  0  0  0  0  0  0  0  0  0  0  0
    4.2592   -2.2711   -0.9083 H   0  0  0  0  0  0  0  0  0  0  0  0
    6.3847   -0.8522    1.7048 H   0  0  0  0  0  0  0  0  0  0  0  0
    4.5116    0.6802    2.2133 H   0  0  0  0  0  0  0  0  0  0  0  0
    2.2163    1.4254    1.6997 H   0  0  0  0  0  0  0  0  0  0  0  0
   -1.9444    1.8641    1.6097 H   0  0  0  0  0  0  0  0  0  0  0  0
   -4.2408    2.5952    1.0814 H   0  0  0  0  0  0  0  0  0  0  0  0
   -6.2635    2.3186   -0.3142 H   0  0  0  0  0  0  0  0  0  0  0  0
   -4.4777   -0.3716   -2.0267 H   0  0  0  0  0  0  0  0  0  0  0  0
   -2.1820   -1.1092   -1.5023 H   0  0  0  0  0  0  0  0  0  0  0  0
  1  2  1  0
  2  3  1  0
  3  4  2  0
  4  5  1  0
  5  6  1  0
  4  7  1  0
  7  8  2  0
  8  9  1  0
  9 10  2  0
 10 11  1  0
 10 12  1  0
 12 13  2  0
  3 14  1  0
 14 15  2  0
 15 16  1  0
 16 17  2  0
 17 18  1  0
 17 19  1  0
 19 20  2  0
 13  7  1  0
 20 14  1  0
  1 21  1  0
  1 22  1  0
  1 23  1  0
  2 24  1  0
  2 25  1  0
  5 26  1  0
  5 27  1  0
  6 28  1  0
  6 29  1  0
  6 30  1  0
  8 31  1  0
  9 32  1  0
 11 33  1  0
 12 34  1  0
 13 35  1  0
 15 36  1  0
 16 37  1  0
 18 38  1  0
 19 39  1  0
 20 40  1  0
M  END
$$$$

     RDKit          3D

 33 34  0  0  0  0  0  0  0  0999 V2000
    2.6088   -0.4874   -1.2289 C   0  0  0  0  0  0  0  0  0  0  0  0
    1.2687   -1.0392   -0.9794 N   0  0  0  0  0  0  0  0  0  0  0  0
    0.5790   -0.5133    0.2355 C   0  0  0  0  0  0  0  0  0  0  0  0
    1.5699   -0.5956    1.4431 C   0  0  0  0  0  0  0  0  0  0  0  0
   -0.6494   -1.4278    0.5953 C   0  0  0  0  0  0  0  0  0  0  0  0
   -1.5758   -1.6717   -0.6150 C   0  0  0  0  0  0  0  0  0  0  0  0
   -2.2534   -0.3082   -0.8069 C   0  0  0  0  0  0  0  0  0  0  0  0
   -1.6425    0.5462    0.3271 C   0  0  0  0  0  0  0  0  0  0  0  0
   -1.5350   -0.5048    1.4112 C   0  0  0  0  0  0  0  0  0  0  0  0
   -0.1414    0.9104    0.0458 C   0  0  0  0  0  0  0  0  0  0  0  0
    0.0206    1.5996   -1.3429 C   0  0  0  0  0  0  0  0  0  0  0  0
    0.3123    1.9810    1.0812 C   0  0  0  0  0  0  0  0  0  0  0  0
    3.3597   -1.0487   -0.6349 H   0  0  0  0  0  0  0  0  0  0  0  0
    2.8762   -0.6081   -2.3009 H   0  0  0  0  0  0  0  0  0  0  0  0
    2.6736    0.5880   -0.9705 H   0  0  0  0  0  0  0  0  0  0  0  0
    0.7085   -0.9210   -1.8477 H   0  0  0  0  0  0  0  0  0  0  0  0
    1.0828   -0.4430    2.4253 H   0  0  0  0  0  0  0  0  0  0  0  0
    2.0370   -1.6034    1.4751 H   0  0  0  0  0  0  0  0  0  0  0  0
    2.3845    0.1519    1.3579 H   0  0  0  0  0  0  0  0  0  0  0  0
   -0.3827   -2.3708    1.1214 H   0  0  0  0  0  0  0  0  0  0  0  0
   -1.0680   -2.0384   -1.5269 H   0  0  0  0  0  0  0  0  0  0  0  0
   -2.3397   -2.4358   -0.3469 H   0  0  0  0  0  0  0  0  0  0  0  0
   -3.3506   -0.4063   -0.6473 H   0  0  0  0  0  0  0  0  0  0  0  0
   -2.1111    0.0990   -1.8250 H   0  0  0  0  0  0  0  0  0  0  0  0
   -2.2823    1.4123    0.6051 H   0  0  0  0  0  0  0  0  0  0  0  0
   -2.5186   -0.9624    1.6749 H   0  0  0  0  0  0  0  0  0  0  0  0
   -1.0850   -0.1414    2.3550 H   0  0  0  0  0  0  0  0  0  0  0  0
   -0.6909    2.4500   -1.4211 H   0  0  0  0  0  0  0  0  0  0  0  0
   -0.1739    0.9514   -2.2138 H   0  0  0  0  0  0  0  0  0  0  0  0
    1.0380    2.0219   -1.4674 H   0  0  0  0  0  0  0  0  0  0  0  0
   -0.2785    2.9147    0.9569 H   0  0  0  0  0  0  0  0  0  0  0  0
    0.1770    1.6611    2.1321 H   0  0  0  0  0  0  0  0  0  0  0  0
    1.3822    2.2398    0.9327 H   0  0  0  0  0  0  0  0  0  0  0  0
  1  2  1  0
  2  3  1  0
  3  4  1  0
  3  5  1  0
  5  6  1  0
  6  7  1  0
  7  8  1  0
  8  9  1  0
  8 10  1  0
 10 11  1  0
 10 12  1  0
 10  3  1  0
  9  5  1  0
  1 13  1  0
  1 14  1  0
  1 15  1  0
  2 16  1  0
  4 17  1  0
  4 18  1  0
  4 19  1  0
  5 20  1  0
  6 21  1  0
  6 22  1  0
  7 23  1  0
  7 24  1  0
  8 25  1  0
  9 26  1  0
  9 27  1  0
 11 28  1  0
 11 29  1  0
 11 30  1  0
 12 31  1  0
 12 32  1  0
 12 33  1  0
M  END
$$$$

     RDKit          3D

 26 24  0  0  0  0  0  0  0  0999 V2000
   -1.7342   -1.4861   -0.3986 C   0  0  0  0  0  0  0  0  0  0  0  0
   -1.4741   -0.2518    0.3810 N   0  0  0  0  0  0  0  0  0  0  0  0
   -2.2047   -0.3520    1.6682 C   0  0  0  0  0  0  0  0  0  0  0  0
   -1.9943    0.9233   -0.3588 C   0  0  0  0  0  0  0  0  0  0  0  0
   -0.0188   -0.0999    0.6891 C   0  0  0  0  0  0  0  0  0  0  0  0
    0.9049    0.0201   -0.5377 C   0  0  0  0  0  0  0  0  0  0  0  0
    2.2511    0.1580   -0.0931 O   0  0  0  0  0  0  0  0  0  0  0  0
    3.3274    0.2887   -0.9749 C   0  0  0  0  0  0  0  0  0  0  0  0
    4.6480    0.4227   -0.4570 N   0  0  0  0  0  0  0  0  0  0  0  0
    3.1418    0.2893   -2.2222 O   0  0  0  0  0  0  0  0  0  0  0  0
    0.0000    0.0000    0.0000 Cl  0  0  0  0  0  0  0  0  0  0  0  0
   -1.2724   -2.3726    0.0906 H   0  0  0  0  0  0  0  0  0  0  0  0
   -1.3363   -1.4091   -1.4330 H   0  0  0  0  0  0  0  0  0  0  0  0
   -2.8271   -1.6765   -0.4933 H   0  0  0  0  0  0  0  0  0  0  0  0
   -3.3003   -0.4675    1.5058 H   0  0  0  0  0  0  0  0  0  0  0  0
   -2.0513    0.5602    2.2881 H   0  0  0  0  0  0  0  0  0  0  0  0
   -1.8581   -1.2301    2.2585 H   0  0  0  0  0  0  0  0  0  0  0  0
   -1.7305    1.8715    0.1606 H   0  0  0  0  0  0  0  0  0  0  0  0
   -1.5927    0.9667   -1.3938 H   0  0  0  0  0  0  0  0  0  0  0  0
   -3.1029    0.8791   -0.4511 H   0  0  0  0  0  0  0  0  0  0  0  0
    0.3347   -0.9692    1.2902 H   0  0  0  0  0  0  0  0  0  0  0  0
    0.1433    0.8048    1.3195 H   0  0  0  0  0  0  0  0  0  0  0  0
    0.8342   -0.8890   -1.1700 H   0  0  0  0  0  0  0  0  0  0  0  0
    0.6397    0.9132   -1.1402 H   0  0  0  0  0  0  0  0  0  0  0  0
    5.4630    0.5213   -1.1023 H   0  0  0  0  0  0  0  0  0  0  0  0
    4.8094    0.4231    0.5743 H   0  0  0  0  0  0  0  0  0  0  0  0
  1  2  1  0
  2  3  1  0
  2  4  1  0
  2  5  1  0
  5  6  1  0
  6  7  1  0
  7  8  1  0
  8  9  1  0
  8 10  2  0
  1 12  1  0
  1 13  1  0
  1 14  1  0
  3 15  1  0
  3 16  1  0
  3 17  1  0
  4 18  1  0
  4 19  1  0
  4 20  1  0
  5 21  1  0
  5 22  1  0
  6 23  1  0
  6 24  1  0
  9 25  1  0
  9 26  1  0
M  CHG  2   2   1  11  -1
M  END
$$$$

     RDKit          3D

 31 33  0  0  0  0  0  0  0  0999 V2000
   -0.2220    4.2066    0.7721 O   0  0  0  0  0  0  0  0  0  0  0  0
   -0.1456    2.9602    0.9288 C   0  0  0  0  0  0  0  0  0  0  0  0
   -0.0725    2.3384    2.1945 N   0  0  0  0  0  0  0  0  0  0  0  0
    0.0015    0.9534    1.8914 C   0  0  0  0  0  0  0  0  0  0  0  0
    0.1055    0.0669    2.7812 O   0  0  0  0  0  0  0  0  0  0  0  0
   -0.0370    0.6796    0.4025 C   0  0  0  0  0  0  0  0  0  0  0  0
    1.2649   -0.0157    0.0009 C   0  0  0  0  0  0  0  0  0  0  0  0
    2.3509    0.6983   -0.5507 C   0  0  0  0  0  0  0  0  0  0  0  0
    3.5411    0.0413   -0.8772 C   0  0  0  0  0  0  0  0  0  0  0  0
    3.6737   -1.3286   -0.6450 C   0  0  0  0  0  0  0  0  0  0  0  0
    2.6190   -2.0447   -0.0774 C   0  0  0  0  0  0  0  0  0  0  0  0
    1.4267   -1.3943    0.2517 C   0  0  0  0  0  0  0  0  0  0  0  0
   -1.2713   -0.1013   -0.0563 C   0  0  0  0  0  0  0  0  0  0  0  0
   -1.3439   -0.5474   -1.3924 C   0  0  0  0  0  0  0  0  0  0  0  0
   -2.4697   -1.2318   -1.8581 C   0  0  0  0  0  0  0  0  0  0  0  0
   -3.5498   -1.4643   -1.0062 C   0  0  0  0  0  0  0  0  0  0  0  0
   -3.5103   -1.0038    0.3105 C   0  0  0  0  0  0  0  0  0  0  0  0
   -2.3870   -0.3185    0.7833 C   0  0  0  0  0  0  0  0  0  0  0  0
   -0.1230    2.0360   -0.1494 N   0  0  0  0  0  0  0  0  0  0  0  0
   -0.0593    2.7925    3.1344 H   0  0  0  0  0  0  0  0  0  0  0  0
    2.2901    1.7635   -0.7282 H   0  0  0  0  0  0  0  0  0  0  0  0
    4.3647    0.5974   -1.3061 H   0  0  0  0  0  0  0  0  0  0  0  0
    4.5971   -1.8336   -0.8974 H   0  0  0  0  0  0  0  0  0  0  0  0
    2.7265   -3.1048    0.1127 H   0  0  0  0  0  0  0  0  0  0  0  0
    0.6265   -1.9673    0.7035 H   0  0  0  0  0  0  0  0  0  0  0  0
   -0.5246   -0.3645   -2.0767 H   0  0  0  0  0  0  0  0  0  0  0  0
   -2.5065   -1.5770   -2.8833 H   0  0  0  0  0  0  0  0  0  0  0  0
   -4.4219   -1.9925   -1.3692 H   0  0  0  0  0  0  0  0  0  0  0  0
   -4.3555   -1.1717    0.9656 H   0  0  0  0  0  0  0  0  0  0  0  0
   -2.4047    0.0416    1.8024 H   0  0  0  0  0  0  0  0  0  0  0  0
   -0.1833    2.2861   -1.1621 H   0  0  0  0  0  0  0  0  0  0  0  0
  1  2  2  0
  2  3  1  0
  3  4  1  0
  4  5  2  0
  4  6  1  0
  6  7  1  0
  7  8  2  0
  8  9  1  0
  9 10  2  0
 10 11  1  0
 11 12  2  0
  6 13  1  0
 13 14  2  0
 14 15  1  0
 15 16  2  0
 16 17  1  0
 17 18  2  0
  6 19  1  0
 19  2  1  0
 12  7  1  0
 18 13  1  0
  3 20  1  0
  8 21  1  0
  9 22  1  0
 10 23  1  0
 11 24  1  0
 12 25  1  0
 14 26  1  0
 15 27  1  0
 16 28  1  0
 17 29  1  0
 18 30  1  0
 19 31  1  0
M  END
$$$$

     RDKit          3D

 45 47  0  0  0  0  0  0  0  0999 V2000
    4.6761    1.2905   -0.0669 C   0  0  0  0  0  0  0  0  0  0  0  0
    4.2371   -0.1154   -0.0099 N   0  0  0  0  0  0  0  0  0  0  0  0
    5.3246   -0.9844   -0.4885 C   0  0  0  0  0  0  0  0  0  0  0  0
    3.0174   -0.3258   -0.8211 C   0  0  0  0  0  0  0  0  0  0  0  0
    1.7633    0.0297   -0.0115 C   0  0  0  0  0  0  0  0  0  0  0  0
    0.4859   -0.2527   -0.8128 C   0  0  0  0  0  0  0  0  0  0  0  0
   -0.7145   -0.1303    0.0282 N   0  0  0  0  0  0  0  0  0  0  0  0
   -1.2063    1.1735    0.3636 C   0  0  0  0  0  0  0  0  0  0  0  0
   -0.6252    1.9120    1.4047 C   0  0  0  0  0  0  0  0  0  0  0  0
   -1.1089    3.1860    1.7149 C   0  0  0  0  0  0  0  0  0  0  0  0
   -2.1825    3.7206    0.9976 C   0  0  0  0  0  0  0  0  0  0  0  0
   -2.7798    2.9782   -0.0254 C   0  0  0  0  0  0  0  0  0  0  0  0
   -2.2886    1.7027   -0.3481 C   0  0  0  0  0  0  0  0  0  0  0  0
   -2.9653    0.8444   -1.3749 C   0  0  0  0  0  0  0  0  0  0  0  0
   -3.7331   -0.2857   -0.6841 C   0  0  0  0  0  0  0  0  0  0  0  0
   -2.9024   -1.3853   -0.0314 C   0  0  0  0  0  0  0  0  0  0  0  0
   -3.5985   -2.5654    0.2942 C   0  0  0  0  0  0  0  0  0  0  0  0
   -2.9540   -3.6410    0.9035 C   0  0  0  0  0  0  0  0  0  0  0  0
   -1.5987   -3.5598    1.2104 C   0  0  0  0  0  0  0  0  0  0  0  0
   -0.7890   -4.9151    1.9754 Cl  0  0  0  0  0  0  0  0  0  0  0  0
   -0.8868   -2.3979    0.9143 C   0  0  0  0  0  0  0  0  0  0  0  0
   -1.5157   -1.2965    0.3060 C   0  0  0  0  0  0  0  0  0  0  0  0
    4.9229    1.5968   -1.1081 H   0  0  0  0  0  0  0  0  0  0  0  0
    3.8898    1.9638    0.3311 H   0  0  0  0  0  0  0  0  0  0  0  0
    5.5739    1.4367    0.5717 H   0  0  0  0  0  0  0  0  0  0  0  0
    6.2454   -0.8190    0.1120 H   0  0  0  0  0  0  0  0  0  0  0  0
    5.5501   -0.7929   -1.5617 H   0  0  0  0  0  0  0  0  0  0  0  0
    5.0441   -2.0521   -0.3605 H   0  0  0  0  0  0  0  0  0  0  0  0
    2.9282   -1.3970   -1.1146 H   0  0  0  0  0  0  0  0  0  0  0  0
    3.0483    0.2698   -1.7624 H   0  0  0  0  0  0  0  0  0  0  0  0
    1.7569   -0.5632    0.9280 H   0  0  0  0  0  0  0  0  0  0  0  0
    1.7874    1.1061    0.2510 H   0  0  0  0  0  0  0  0  0  0  0  0
    0.5375   -1.2737   -1.2527 H   0  0  0  0  0  0  0  0  0  0  0  0
    0.4175    0.4615   -1.6627 H   0  0  0  0  0  0  0  0  0  0  0  0
    0.1895    1.4966    1.9831 H   0  0  0  0  0  0  0  0  0  0  0  0
   -0.6573    3.7554    2.5169 H   0  0  0  0  0  0  0  0  0  0  0  0
   -2.5613    4.7040    1.2442 H   0  0  0  0  0  0  0  0  0  0  0  0
   -3.6283    3.3922   -0.5558 H   0  0  0  0  0  0  0  0  0  0  0  0
   -2.2226    0.4255   -2.0881 H   0  0  0  0  0  0  0  0  0  0  0  0
   -3.6790    1.4528   -1.9725 H   0  0  0  0  0  0  0  0  0  0  0  0
   -4.4117    0.1487    0.0829 H   0  0  0  0  0  0  0  0  0  0  0  0
   -4.3831   -0.7521   -1.4572 H   0  0  0  0  0  0  0  0  0  0  0  0
   -4.6550   -2.6556    0.0706 H   0  0  0  0  0  0  0  0  0  0  0  0
   -3.5122   -4.5387    1.1375 H   0  0  0  0  0  0  0  0  0  0  0  0
    0.1634   -2.3478    1.1697 H   0  0  0  0  0  0  0  0  0  0  0  0
  1  2  1  0
  2  3  1  0
  2  4  1  0
  4  5  1  0
  5  6  1  0
  6  7  1  0
  7  8  1  0
  8  9  2  0
  9 10  1  0
 10 11  2  0
 11 12  1  0
 12 13  2  0
 13 14  1  0
 14 15  1  0
 15 16  1  0
 16 17  2  0
 17 18  1  0
 18 19  2  0
 19 20  1  0
 19 21  1  0
 21 22  2  0
 22  7  1  0
 13  8  1  0
 22 16  1  0
  1 23  1  0
  1 24  1  0
  1 25  1  0
  3 26  1  0
  3 27  1  0
  3 28  1  0
  4 29  1  0
  4 30  1  0
  5 31  1  0
  5 32  1  0
  6 33  1  0
  6 34  1  0
  9 35  1  0
 10 36  1  0
 11 37  1  0
 12 38  1  0
 14 39  1  0
 14 40  1  0
 15 41  1  0
 15 42  1  0
 17 43  1  0
 18 44  1  0
 21 45  1  0
M  END
$$$$

     RDKit          3D

 24 26  0  0  0  0  0  0  0  0999 V2000
    0.9199    3.1049   -0.5833 C   0  0  0  0  0  0  0  0  0  0  0  0
   -0.1741    2.4142    0.0095 O   0  0  0  0  0  0  0  0  0  0  0  0
   -0.3174    1.0183    0.0907 C   0  0  0  0  0  0  0  0  0  0  0  0
   -1.4596    0.5089    0.7090 C   0  0  0  0  0  0  0  0  0  0  0  0
   -2.4470    1.1882    1.2407 O   0  0  0  0  0  0  0  0  0  0  0  0
   -3.3229    0.3214    1.7161 C   0  0  0  0  0  0  0  0  0  0  0  0
   -2.8906   -0.9794    1.4861 C   0  0  0  0  0  0  0  0  0  0  0  0
   -1.6877   -0.8338    0.8359 C   0  0  0  0  0  0  0  0  0  0  0  0
   -0.7965   -1.7859    0.3570 C   0  0  0  0  0  0  0  0  0  0  0  0
    0.3739   -1.3251   -0.2766 C   0  0  0  0  0  0  0  0  0  0  0  0
    1.3157   -2.2251   -0.7830 C   0  0  0  0  0  0  0  0  0  0  0  0
    2.4636   -1.7400   -1.4044 C   0  0  0  0  0  0  0  0  0  0  0  0
    2.6472   -0.3588   -1.5072 C   0  0  0  0  0  0  0  0  0  0  0  0
    3.6789    0.0972   -2.0658 O   0  0  0  0  0  0  0  0  0  0  0  0
    1.7390    0.4810   -1.0188 O   0  0  0  0  0  0  0  0  0  0  0  0
    0.6238    0.0761   -0.4153 C   0  0  0  0  0  0  0  0  0  0  0  0
    0.7470    4.1968   -0.4928 H   0  0  0  0  0  0  0  0  0  0  0  0
    1.8635    2.8559   -0.0538 H   0  0  0  0  0  0  0  0  0  0  0  0
    0.9949    2.8517   -1.6617 H   0  0  0  0  0  0  0  0  0  0  0  0
   -4.2430    0.5992    2.2125 H   0  0  0  0  0  0  0  0  0  0  0  0
   -3.3905   -1.8995    1.7585 H   0  0  0  0  0  0  0  0  0  0  0  0
   -1.0033   -2.8434    0.4715 H   0  0  0  0  0  0  0  0  0  0  0  0
    1.1649   -3.2947   -0.6986 H   0  0  0  0  0  0  0  0  0  0  0  0
    3.2004   -2.4280   -1.8005 H   0  0  0  0  0  0  0  0  0  0  0  0
  1  2  1  0
  2  3  1  0
  3  4  2  0
  4  5  1  0
  5  6  1  0
  6  7  2  0
  7  8  1  0
  8  9  2  0
  9 10  1  0
 10 11  1  0
 11 12  2  0
 12 13  1  0
 13 14  2  0
 13 15  1  0
 15 16  1  0
 16  3  1  0
  8  4  1  0
 16 10  2  0
  1 17  1  0
  1 18  1  0
  1 19  1  0
  6 20  1  0
  7 21  1  0
  9 22  1  0
 11 23  1  0
 12 24  1  0
M  END
$$$$
