REMARK  Name = 
REMARK  6 active torsions:
REMARK  status: ('A' for Active; 'I' for Inactive)
REMARK    1  A    between atoms: C_1  and  N_2
REMARK    2  A    between atoms: N_2  and  C_3
REMARK    3  A    between atoms: N_2  and  C_4
REMARK    4  A    between atoms: C_4  and  C_5
REMARK    5  A    between atoms: C_5  and  C_6
REMARK    6  A    between atoms: C_6  and  N_7
REMARK                            x       y       z     vdW  Elec       q    Type
REMARK                         _______ _______ _______ _____ _____    ______ ____
ROOT
ATOM      1  N   UNL     1      -0.647   0.275  -0.564  0.00  0.00    +0.000 N 
ATOM      2  C   UNL     1      -1.058  -0.982  -0.061  0.00  0.00    +0.000 A 
ATOM      3  C   UNL     1      -0.868  -2.172  -0.781  0.00  0.00    +0.000 A 
ATOM      4  C   UNL     1      -1.266  -3.404  -0.256  0.00  0.00    +0.000 A 
ATOM      5  C   UNL     1      -1.863  -3.465   0.999  0.00  0.00    +0.000 A 
ATOM      6  C   UNL     1      -2.069  -2.295   1.726  0.00  0.00    +0.000 A 
ATOM      7  C   UNL     1      -1.673  -1.056   1.200  0.00  0.00    +0.000 A 
ATOM      8  C   UNL     1      -1.894   0.215   1.974  0.00  0.00    +0.000 C 
ATOM      9  C   UNL     1      -2.949   1.083   1.296  0.00  0.00    +0.000 C 
ATOM     10  C   UNL     1      -2.636   1.683  -0.063  0.00  0.00    +0.000 A 
ATOM     11  C   UNL     1      -3.532   2.695  -0.484  0.00  0.00    +0.000 A 
ATOM     12  C   UNL     1      -3.380   3.343  -1.706  0.00  0.00    +0.000 A 
ATOM     13  C   UNL     1      -2.333   2.976  -2.534  0.00  0.00    +0.000 A 
ATOM     14 CL   UNL     1      -2.138   3.749  -4.059  0.00  0.00    +0.000 Cl
ATOM     15  C   UNL     1      -1.444   1.974  -2.145  0.00  0.00    +0.000 A 
ATOM     16  C   UNL     1      -1.561   1.306  -0.904  0.00  0.00    +0.000 A 
ENDROOT
BRANCH   1  17
ATOM     17  C   UNL     1       0.717   0.335  -1.137  0.00  0.00    +0.000 C 
BRANCH  17  18
ATOM     18  C   UNL     1       1.787  -0.119  -0.130  0.00  0.00    +0.000 C 
BRANCH  18  19
ATOM     19  C   UNL     1       3.192   0.072  -0.718  0.00  0.00    +0.000 C 
BRANCH  19  21
ATOM     20  C   UNL     1       4.339  -1.753   0.430  0.00  0.00    +0.000 C 
ATOM     21  N   UNL     1       4.325  -0.324   0.129  0.00  0.00    +0.000 NA
ATOM     22  C   UNL     1       4.421   0.467   1.353  0.00  0.00    +0.000 C 
ENDBRANCH  19  21
ENDBRANCH  18  19
ENDBRANCH  17  18
ENDBRANCH   1  17
TORSDOF 4
