REMARK  Name = 
REMARK  7 active torsions:
REMARK  status: ('A' for Active; 'I' for Inactive)
REMARK    1  A    between atoms: C_1  and  N_2
REMARK    2  A    between atoms: N_2  and  C_3
REMARK    3  A    between atoms: N_2  and  C_4
REMARK    4  A    between atoms: N_2  and  C_5
REMARK    5  A    between atoms: C_5  and  C_6
REMARK    6  A    between atoms: C_6  and  O_7
REMARK    7  A    between atoms: O_7  and  C_8
REMARK                            x       y       z     vdW  Elec       q    Type
REMARK                         _______ _______ _______ _____ _____    ______ ____
ROOT
ATOM      1  C   UNL     1       1.035  -0.375  -0.070  0.00  0.00    +0.000 C 
ENDROOT
BRANCH   1   2
ATOM      2  C   UNL     1      -0.040   0.641   0.322  0.00  0.00    +0.000 C 
BRANCH   2   4
ATOM      3  C   UNL     1      -1.624   0.100  -1.581  0.00  0.00    +0.000 C 
ATOM      4  N   UNL     1      -1.480   0.248  -0.070  0.00  0.00    +0.000 N 
ATOM      5  C   UNL     1      -1.908  -1.046   0.614  0.00  0.00    +0.000 C 
ATOM      6  C   UNL     1      -2.414   1.369   0.394  0.00  0.00    +0.000 C 
ENDBRANCH   2   4
ENDBRANCH   1   2
BRANCH   1   7
ATOM      7  O   UNL     1       2.309   0.129   0.358  0.00  0.00    +0.000 OA
BRANCH   7   8
ATOM      8  C   UNL     1       3.334  -0.704   0.056  0.00  0.00    +0.000 C 
ATOM      9  N   UNL     1       4.504  -0.185   0.478  0.00  0.00    +0.000 N 
ATOM     10  O   UNL     1       3.223  -1.774  -0.517  0.00  0.00    +0.000 OA
ATOM     11  H   UNL     1       4.546   0.706   0.949  0.00  0.00    +0.000 HD
ATOM     12  H   UNL     1       5.356  -0.704   0.317  0.00  0.00    +0.000 HD
ENDBRANCH   7   8
ENDBRANCH   1   7
TORSDOF 4
REMARK  Name = 
REMARK  7 active torsions:
REMARK  status: ('A' for Active; 'I' for Inactive)
REMARK    1  A    between atoms: C_1  and  N_2
REMARK    2  A    between atoms: N_2  and  C_3
REMARK    3  A    between atoms: N_2  and  C_4
REMARK    4  A    between atoms: N_2  and  C_5
REMARK    5  A    between atoms: C_5  and  C_6
REMARK    6  A    between atoms: C_6  and  O_7
REMARK    7  A    between atoms: O_7  and  C_8
REMARK                            x       y       z     vdW  Elec       q    Type
REMARK                         _______ _______ _______ _____ _____    ______ ____
ROOT
ATOM      1 CL   UNL     1       0.000   0.000   0.000  0.00  0.00    +0.000 Cl
ENDROOT
TORSDOF 0
