REMARK  Name = 
REMARK  4 active torsions:
REMARK  status: ('A' for Active; 'I' for Inactive)
REMARK    1  A    between atoms: C_1  and  C_2
REMARK    2  A    between atoms: C_2  and  N_3
REMARK    3  A    between atoms: C_2  and  C_4
REMARK    4  A    between atoms: C_4  and  C_5
REMARK                            x       y       z     vdW  Elec       q    Type
REMARK                         _______ _______ _______ _____ _____    ______ ____
ROOT
ATOM      1  C   UNL     1      -0.716  -0.426  -0.734  0.00  0.00    +0.000 C 
ENDROOT
BRANCH   1   2
ATOM      2  C   UNL     1       0.739  -0.158  -0.418  0.00  0.00    +0.000 A 
ATOM      3  C   UNL     1       1.265   1.136  -0.517  0.00  0.00    +0.000 A 
ATOM      4  C   UNL     1       2.607   1.382  -0.222  0.00  0.00    +0.000 A 
ATOM      5  C   UNL     1       3.436   0.336   0.178  0.00  0.00    +0.000 A 
ATOM      6  C   UNL     1       2.923  -0.956   0.285  0.00  0.00    +0.000 A 
ATOM      7  C   UNL     1       1.581  -1.202  -0.009  0.00  0.00    +0.000 A 
ENDBRANCH   1   2
BRANCH   1   9
ATOM      8  C   UNL     1      -3.013  -0.800   0.243  0.00  0.00    +0.000 C 
ATOM      9  C   UNL     1      -1.676  -0.077   0.424  0.00  0.00    +0.000 C 
BRANCH   9  10
ATOM     10  N   UNL     1      -1.929   1.369   0.504  0.00  0.00    +0.000 NA
ATOM     11  H   UNL     1      -2.415   1.683  -0.334  0.00  0.00    +0.000 HD
ATOM     12  H   UNL     1      -2.555   1.561   1.286  0.00  0.00    +0.000 HD
ENDBRANCH   9  10
ENDBRANCH   1   9
TORSDOF 3
