REMARK  Name = 
REMARK  5 active torsions:
REMARK  status: ('A' for Active; 'I' for Inactive)
REMARK    1  A    between atoms: C_1  and  C_2
REMARK    2  A    between atoms: C_6  and  N_7
REMARK    3  A    between atoms: N_10  and  C_11
REMARK    4  A    between atoms: C_20  and  C_21
REMARK    5  A    between atoms: C_21  and  O_23
REMARK                            x       y       z     vdW  Elec       q    Type
REMARK                         _______ _______ _______ _____ _____    ______ ____
ROOT
ATOM      1  C   UNL     1      -2.523  -2.522  -1.156  0.00  0.00    +0.000 C 
ATOM      2  C   UNL     1      -2.672  -1.917   0.242  0.00  0.00    +0.000 C 
ATOM      3  C   UNL     1      -1.434  -2.152   1.107  0.00  0.00    +0.000 C 
ATOM      4  O   UNL     1      -0.280  -1.520   0.552  0.00  0.00    +0.000 OA
ATOM      5  C   UNL     1      -0.467  -0.165   0.327  0.00  0.00    +0.000 A 
ATOM      6  C   UNL     1       0.694   0.658   0.292  0.00  0.00    +0.000 A 
ATOM      7  C   UNL     1       0.455   2.042   0.138  0.00  0.00    +0.000 A 
ATOM      8  F   UNL     1       1.477   2.913   0.095  0.00  0.00    +0.000 F 
ATOM      9  C   UNL     1      -0.820   2.581  -0.008  0.00  0.00    +0.000 A 
ATOM     10  C   UNL     1      -1.929   1.740  -0.009  0.00  0.00    +0.000 A 
ATOM     11  C   UNL     1      -3.287   2.324  -0.171  0.00  0.00    +0.000 A 
ATOM     12  O   UNL     1      -3.421   3.542  -0.198  0.00  0.00    +0.000 OA
ATOM     13  C   UNL     1      -4.433   1.385  -0.259  0.00  0.00    +0.000 A 
ATOM     14  C   UNL     1      -4.171   0.080  -0.086  0.00  0.00    +0.000 A 
ATOM     15  N   UNL     1      -2.925  -0.472   0.144  0.00  0.00    +0.000 N 
ATOM     16  C   UNL     1      -1.776   0.356   0.153  0.00  0.00    +0.000 A 
ENDROOT
BRANCH   6  17
ATOM     17  N   UNL     1       1.985   0.141   0.433  0.00  0.00    +0.000 N 
ATOM     18  C   UNL     1       2.342  -1.155  -0.178  0.00  0.00    +0.000 C 
ATOM     19  C   UNL     1       3.792  -1.138  -0.722  0.00  0.00    +0.000 C 
ATOM     20  N   UNL     1       4.818  -0.838   0.300  0.00  0.00    +0.000 NA
ATOM     21  C   UNL     1       6.048  -0.371  -0.332  0.00  0.00    +0.000 C 
ATOM     22  C   UNL     1       4.312   0.129   1.300  0.00  0.00    +0.000 C 
ATOM     23  C   UNL     1       3.115   0.994   0.837  0.00  0.00    +0.000 C 
ENDBRANCH   6  17
BRANCH  13  24
ATOM     24  C   UNL     1      -5.826   1.769  -0.518  0.00  0.00    +0.000 C 
ATOM     25  O   UNL     1      -6.811   1.116  -0.211  0.00  0.00    +0.000 OA
BRANCH  24  26
ATOM     26  O   UNL     1      -5.950   2.912  -1.206  0.00  0.00    +0.000 OA
ATOM     27  H   UNL     1      -6.914   3.055  -1.294  0.00  0.00    +0.000 HD
ENDBRANCH  24  26
ENDBRANCH  13  24
TORSDOF 3
