REMARK  Name = 
REMARK  5 active torsions:
REMARK  status: ('A' for Active; 'I' for Inactive)
REMARK    1  A    between atoms: C_1  and  C_2
REMARK    2  A    between atoms: C_2  and  C_3
REMARK    3  A    between atoms: C_3  and  N_4
REMARK    4  A    between atoms: C_9  and  C_10
REMARK    5  A    between atoms: C_10  and  O_12
REMARK                            x       y       z     vdW  Elec       q    Type
REMARK                         _______ _______ _______ _____ _____    ______ ____
ROOT
ATOM      1  C   UNL     1       0.539   1.847  -1.488  0.00  0.00    +0.000 C 
ATOM      2  C   UNL     1      -0.069   0.703  -0.639  0.00  0.00    +0.000 C 
ATOM      3  C   UNL     1       0.762   0.415   0.623  0.00  0.00    +0.000 C 
ATOM      4  N   UNL     1       1.933  -0.373   0.191  0.00  0.00    +0.000 N 
ATOM      5  C   UNL     1       2.240  -1.514   0.884  0.00  0.00    +0.000 C 
ATOM      6  O   UNL     1       2.265  -1.733   2.071  0.00  0.00    +0.000 OA
ATOM      7  C   UNL     1       2.348  -2.343  -0.401  0.00  0.00    +0.000 C 
ATOM      8  C   UNL     1       1.878  -1.080  -1.119  0.00  0.00    +0.000 C 
ATOM      9  S   UNL     1       0.148  -0.862  -1.544  0.00  0.00    +0.000 S 
ATOM     10  O   UNL     1       0.006  -0.600  -2.963  0.00  0.00    +0.000 OA
ATOM     11  O   UNL     1      -0.648  -1.894  -0.914  0.00  0.00    +0.000 OA
ENDROOT
BRANCH   3  12
ATOM     12  C   UNL     1       1.139   1.682   1.383  0.00  0.00    +0.000 C 
ATOM     13  O   UNL     1       0.359   2.560   1.717  0.00  0.00    +0.000 OA
BRANCH  12  14
ATOM     14  O   UNL     1       2.452   1.809   1.653  0.00  0.00    +0.000 OA
ATOM     15  H   UNL     1       2.520   2.614   2.208  0.00  0.00    +0.000 HD
ENDBRANCH  12  14
ENDBRANCH   3  12
BRANCH   2  16
ATOM     16  C   UNL     1      -1.563   1.009  -0.439  0.00  0.00    +0.000 C 
BRANCH  16  17
ATOM     17  N   UNL     1      -2.308   0.162   0.462  0.00  0.00    +0.000 N 
ATOM     18  C   UNL     1      -3.276  -0.748   0.166  0.00  0.00    +0.000 A 
ATOM     19  C   UNL     1      -3.688  -1.198   1.397  0.00  0.00    +0.000 A 
ATOM     20  N   UNL     1      -3.004  -0.534   2.375  0.00  0.00    +0.000 NA
ATOM     21  N   UNL     1      -2.175   0.319   1.789  0.00  0.00    +0.000 NA
ENDBRANCH  16  17
ENDBRANCH   2  16
TORSDOF 4
