REMARK  Name = 
REMARK  2 active torsions:
REMARK  status: ('A' for Active; 'I' for Inactive)
REMARK    1  A    between atoms: C_6  and  C_7
REMARK    2  A    between atoms: C_6  and  C_13
REMARK                            x       y       z     vdW  Elec       q    Type
REMARK                         _______ _______ _______ _____ _____    ______ ____
ROOT
ATOM      1  O   UNL     1      -1.001  -3.855   1.474  0.00  0.00    +0.000 OA
ATOM      2  C   UNL     1      -0.708  -2.953   0.710  0.00  0.00    +0.000 C 
ATOM      3  N   UNL     1      -0.700  -3.022  -0.635  0.00  0.00    +0.000 N 
ATOM      4  C   UNL     1      -0.455  -1.796  -1.176  0.00  0.00    +0.000 C 
ATOM      5  O   UNL     1      -0.477  -1.575  -2.381  0.00  0.00    +0.000 OA
ATOM      6  C   UNL     1      -0.179  -0.775  -0.026  0.00  0.00    +0.000 C 
ATOM      7  N   UNL     1      -0.356  -1.688   1.094  0.00  0.00    +0.000 N 
ATOM      8  H   UNL     1      -0.955  -3.840  -1.161  0.00  0.00    +0.000 HD
ATOM      9  H   UNL     1      -0.430  -1.401   2.058  0.00  0.00    +0.000 HD
ENDROOT
BRANCH   6  10
ATOM     10  C   UNL     1      -1.218   0.347   0.107  0.00  0.00    +0.000 A 
ATOM     11  C   UNL     1      -2.314   0.483  -0.763  0.00  0.00    +0.000 A 
ATOM     12  C   UNL     1      -3.243   1.514  -0.594  0.00  0.00    +0.000 A 
ATOM     13  C   UNL     1      -3.099   2.427   0.447  0.00  0.00    +0.000 A 
ATOM     14  C   UNL     1      -2.023   2.313   1.322  0.00  0.00    +0.000 A 
ATOM     15  C   UNL     1      -1.094   1.285   1.155  0.00  0.00    +0.000 A 
ENDBRANCH   6  10
BRANCH   6  16
ATOM     16  C   UNL     1       1.260  -0.251  -0.139  0.00  0.00    +0.000 A 
ATOM     17  C   UNL     1       2.272  -0.614   0.768  0.00  0.00    +0.000 A 
ATOM     18  C   UNL     1       3.571  -0.116   0.632  0.00  0.00    +0.000 A 
ATOM     19  C   UNL     1       3.884   0.750  -0.412  0.00  0.00    +0.000 A 
ATOM     20  C   UNL     1       2.900   1.119  -1.324  0.00  0.00    +0.000 A 
ATOM     21  C   UNL     1       1.602   0.622  -1.191  0.00  0.00    +0.000 A 
ENDBRANCH   6  16
TORSDOF 2
