REMARK  Name = 
REMARK  6 active torsions:
REMARK  status: ('A' for Active; 'I' for Inactive)
REMARK    1  A    between atoms: C_1  and  O_2
REMARK    2  A    between atoms: O_2  and  C_3
REMARK    3  A    between atoms: C_12  and  C_14
REMARK    4  A    between atoms: C_22  and  N_23
REMARK    5  A    between atoms: C_26  and  O_27
REMARK    6  A    between atoms: O_27  and  C_28
REMARK                            x       y       z     vdW  Elec       q    Type
REMARK                         _______ _______ _______ _____ _____    ______ ____
ROOT
ATOM      1  C   UNL     1       4.623   0.707  -0.705  0.00  0.00    +0.000 A 
ATOM      2  C   UNL     1       3.302   1.159  -0.599  0.00  0.00    +0.000 A 
ATOM      3  C   UNL     1       2.332   0.444   0.092  0.00  0.00    +0.000 A 
ATOM      4  N   UNL     1       1.086   0.928   0.146  0.00  0.00    +0.000 NA
ATOM      5  C   UNL     1       0.143   0.233   0.799  0.00  0.00    +0.000 A 
ATOM      6  N   UNL     1      -1.155   0.751   0.860  0.00  0.00    +0.000 N 
ATOM      7  C   UNL     1      -2.188  -0.273   1.107  0.00  0.00    +0.000 C 
ATOM      8  C   UNL     1      -3.584   0.374   1.260  0.00  0.00    +0.000 C 
ATOM      9  N   UNL     1      -3.875   1.266   0.129  0.00  0.00    +0.000 N 
ATOM     10  C   UNL     1      -4.486   0.797  -1.044  0.00  0.00    +0.000 C 
ATOM     11  O   UNL     1      -4.120   1.214  -2.146  0.00  0.00    +0.000 OA
ATOM     12  C   UNL     1      -2.864   2.314  -0.018  0.00  0.00    +0.000 C 
ATOM     13  C   UNL     1      -1.460   1.713  -0.220  0.00  0.00    +0.000 C 
ATOM     14  N   UNL     1       0.407  -0.921   1.429  0.00  0.00    +0.000 NA
ATOM     15  C   UNL     1       1.660  -1.390   1.387  0.00  0.00    +0.000 A 
ATOM     16  C   UNL     1       2.695  -0.752   0.703  0.00  0.00    +0.000 A 
ATOM     17  C   UNL     1       4.024  -1.232   0.599  0.00  0.00    +0.000 A 
ATOM     18  C   UNL     1       4.988  -0.509  -0.104  0.00  0.00    +0.000 A 
ENDROOT
BRANCH  10  19
ATOM     19  C   UNL     1      -5.567  -0.169  -0.934  0.00  0.00    +0.000 A 
ATOM     20  C   UNL     1      -6.101  -1.018  -1.888  0.00  0.00    +0.000 A 
ATOM     21  C   UNL     1      -7.175  -1.706  -1.276  0.00  0.00    +0.000 A 
ATOM     22  C   UNL     1      -7.252  -1.223   0.008  0.00  0.00    +0.000 A 
ATOM     23  O   UNL     1      -6.292  -0.287   0.223  0.00  0.00    +0.000 OA
ENDBRANCH  10  19
BRANCH  15  24
ATOM     24  N   UNL     1       1.863  -2.593   2.077  0.00  0.00    +0.000 N 
ATOM     25  H   UNL     1       0.974  -2.830   2.513  0.00  0.00    +0.000 HD
ATOM     26  H   UNL     1       2.593  -2.490   2.773  0.00  0.00    +0.000 HD
ENDBRANCH  15  24
BRANCH   1  28
ATOM     27  C   UNL     1       5.288   2.603  -2.001  0.00  0.00    +0.000 C 
ATOM     28  O   UNL     1       5.620   1.373  -1.373  0.00  0.00    +0.000 OA
ENDBRANCH   1  28
BRANCH  18  29
ATOM     29  O   UNL     1       6.295  -0.894  -0.253  0.00  0.00    +0.000 OA
ATOM     30  C   UNL     1       6.668  -2.174   0.239  0.00  0.00    +0.000 C 
ENDBRANCH  18  29
TORSDOF 4
