REMARK  Name = 
REMARK  5 active torsions:
REMARK  status: ('A' for Active; 'I' for Inactive)
REMARK    1  A    between atoms: C_1  and  C_2
REMARK    2  A    between atoms: N_10  and  N_11
REMARK    3  A    between atoms: C_12  and  C_14
REMARK    4  A    between atoms: C_19  and  S_20
REMARK    5  A    between atoms: S_20  and  N_21
REMARK                            x       y       z     vdW  Elec       q    Type
REMARK                         _______ _______ _______ _____ _____    ______ ____
ROOT
ATOM      1  N   UNL     1      -0.302  -0.423   0.641  0.00  0.00    +0.000 N 
ATOM      2  C   UNL     1       0.099  -0.480  -0.687  0.00  0.00    +0.000 C 
ATOM      3  O   UNL     1      -0.623  -0.728  -1.647  0.00  0.00    +0.000 OA
ATOM      4  H   UNL     1       0.289  -0.043   1.371  0.00  0.00    +0.000 HD
ENDROOT
BRANCH   1  14
ATOM      5  C   UNL     1      -2.230  -2.805   1.672  0.00  0.00    +0.000 C 
ATOM      6  C   UNL     1      -2.436  -1.708   0.635  0.00  0.00    +0.000 C 
ATOM      7  C   UNL     1      -3.919  -1.269   0.549  0.00  0.00    +0.000 C 
ATOM      8  C   UNL     1      -3.781   0.204   0.355  0.00  0.00    +0.000 A 
ATOM      9  C   UNL     1      -4.755   1.121  -0.006  0.00  0.00    +0.000 A 
ATOM     10  C   UNL     1      -4.391   2.465  -0.101  0.00  0.00    +0.000 A 
ATOM     11  C   UNL     1      -3.075   2.867   0.174  0.00  0.00    +0.000 A 
ATOM     12  C   UNL     1      -2.106   1.929   0.545  0.00  0.00    +0.000 A 
ATOM     13  C   UNL     1      -2.467   0.593   0.628  0.00  0.00    +0.000 A 
ATOM     14  N   UNL     1      -1.653  -0.504   1.012  0.00  0.00    +0.000 N 
ENDBRANCH   1  14
BRANCH   2  15
ATOM     15  C   UNL     1       1.540  -0.187  -0.939  0.00  0.00    +0.000 A 
ATOM     16  C   UNL     1       1.905   0.304  -2.198  0.00  0.00    +0.000 A 
ATOM     17  C   UNL     1       3.244   0.584  -2.489  0.00  0.00    +0.000 A 
ATOM     18  C   UNL     1       4.238   0.372  -1.528  0.00  0.00    +0.000 A 
ATOM     19 CL   UNL     1       5.853   0.777  -1.980  0.00  0.00    +0.000 Cl
ATOM     20  C   UNL     1       3.880  -0.126  -0.274  0.00  0.00    +0.000 A 
ATOM     21  C   UNL     1       2.533  -0.414   0.020  0.00  0.00    +0.000 A 
BRANCH  20  22
ATOM     22  S   UNL     1       5.085  -0.447   0.982  0.00  0.00    +0.000 S 
ATOM     23  O   UNL     1       6.075  -1.346   0.442  0.00  0.00    +0.000 OA
ATOM     24  O   UNL     1       4.375  -0.737   2.207  0.00  0.00    +0.000 OA
BRANCH  22  25
ATOM     25  N   UNL     1       5.839   1.039   1.215  0.00  0.00    +0.000 NA
ATOM     26  H   UNL     1       5.393   1.817   0.732  0.00  0.00    +0.000 HD
ATOM     27  H   UNL     1       6.822   0.952   0.945  0.00  0.00    +0.000 HD
ENDBRANCH  22  25
ENDBRANCH  20  22
ENDBRANCH   2  15
TORSDOF 4
