REMARK  Name = 
REMARK  8 active torsions:
REMARK  status: ('A' for Active; 'I' for Inactive)
REMARK    1  A    between atoms: C_1  and  C_2
REMARK    2  A    between atoms: C_2  and  C_3
REMARK    3  A    between atoms: C_3  and  C_14
REMARK    4  A    between atoms: C_4  and  C_5
REMARK    5  A    between atoms: C_4  and  C_7
REMARK    6  A    between atoms: C_5  and  C_6
REMARK    7  A    between atoms: C_10  and  O_11
REMARK    8  A    between atoms: C_17  and  O_18
REMARK                            x       y       z     vdW  Elec       q    Type
REMARK                         _______ _______ _______ _____ _____    ______ ____
ROOT
ATOM      1  C   UNL     1       0.383   0.149   0.594  0.00  0.00    +0.000 C 
ATOM      2  C   UNL     1      -0.435   0.291  -0.480  0.00  0.00    +0.000 C 
ENDROOT
BRANCH   2   3
ATOM      3  C   UNL     1      -1.895   0.100  -0.346  0.00  0.00    +0.000 A 
ATOM      4  C   UNL     1      -2.743   1.210  -0.233  0.00  0.00    +0.000 A 
ATOM      5  C   UNL     1      -4.123   1.034  -0.100  0.00  0.00    +0.000 A 
ATOM      6  C   UNL     1      -4.649  -0.254  -0.079  0.00  0.00    +0.000 A 
ATOM      7  C   UNL     1      -3.821  -1.365  -0.189  0.00  0.00    +0.000 A 
ATOM      8  C   UNL     1      -2.443  -1.189  -0.322  0.00  0.00    +0.000 A 
BRANCH   6   9
ATOM      9  O   UNL     1      -5.989  -0.472   0.050  0.00  0.00    +0.000 OA
ATOM     10  H   UNL     1      -6.437   0.387   0.115  0.00  0.00    +0.000 HD
ENDBRANCH   6   9
ENDBRANCH   2   3
BRANCH   1  11
ATOM     11  C   UNL     1       1.839   0.366   0.465  0.00  0.00    +0.000 A 
ATOM     12  C   UNL     1       2.411   1.579   0.872  0.00  0.00    +0.000 A 
ATOM     13  C   UNL     1       3.785   1.785   0.745  0.00  0.00    +0.000 A 
ATOM     14  C   UNL     1       4.586   0.782   0.212  0.00  0.00    +0.000 A 
ATOM     15  C   UNL     1       4.037  -0.429  -0.198  0.00  0.00    +0.000 A 
ATOM     16  C   UNL     1       2.661  -0.635  -0.071  0.00  0.00    +0.000 A 
BRANCH  14  17
ATOM     17  O   UNL     1       5.923   1.026   0.106  0.00  0.00    +0.000 OA
ATOM     18  H   UNL     1       6.352   0.243  -0.276  0.00  0.00    +0.000 HD
ENDBRANCH  14  17
ENDBRANCH   1  11
BRANCH   1  20
ATOM     19  C   UNL     1       0.205  -1.617   2.403  0.00  0.00    +0.000 C 
ATOM     20  C   UNL     1      -0.067  -0.170   2.010  0.00  0.00    +0.000 C 
ENDBRANCH   1  20
BRANCH   2  21
ATOM     21  C   UNL     1       0.004   0.706  -1.875  0.00  0.00    +0.000 C 
ATOM     22  C   UNL     1       0.044  -0.463  -2.853  0.00  0.00    +0.000 C 
ENDBRANCH   2  21
TORSDOF 6
