REMARK  Name = 
REMARK  4 active torsions:
REMARK  status: ('A' for Active; 'I' for Inactive)
REMARK    1  A    between atoms: N_2  and  O_4
REMARK    2  A    between atoms: O_4  and  C_5
REMARK    3  A    between atoms: C_12  and  O_13
REMARK    4  A    between atoms: O_13  and  N_14
REMARK                            x       y       z     vdW  Elec       q    Type
REMARK                         _______ _______ _______ _____ _____    ______ ____
ROOT
ATOM      1  C   UNL     1       1.778  -0.313  -0.216  0.00  0.00    +0.000 C 
ATOM      2  C   UNL     1       0.966  -1.434  -0.856  0.00  0.00    +0.000 C 
ATOM      3  O   UNL     1      -0.349  -1.405  -0.266  0.00  0.00    +0.000 OA
ATOM      4  C   UNL     1      -0.513  -0.148   0.420  0.00  0.00    +0.000 C 
ATOM      5  C   UNL     1       0.695   0.708   0.078  0.00  0.00    +0.000 C 
ATOM      6  O   UNL     1       0.357   1.458  -1.107  0.00  0.00    +0.000 OA
ATOM      7  C   UNL     1      -1.029   1.224  -1.410  0.00  0.00    +0.000 C 
ATOM      8  C   UNL     1      -1.667   0.656  -0.152  0.00  0.00    +0.000 C 
ENDROOT
BRANCH   1   9
ATOM      9  O   UNL     1       2.342  -0.830   0.991  0.00  0.00    +0.000 OA
BRANCH   9  11
ATOM     10  O   UNL     1       3.885  -0.498   2.528  0.00  0.00    +0.000 OA
ATOM     11  N   UNL     1       3.376  -0.021   1.517  0.00  0.00    +0.000 N 
ATOM     12  O   UNL     1       3.615   1.036   0.933  0.00  0.00    +0.000 OA
ENDBRANCH   9  11
ENDBRANCH   1   9
BRANCH   8  13
ATOM     13  O   UNL     1      -2.813  -0.107  -0.495  0.00  0.00    +0.000 OA
BRANCH  13  14
ATOM     14  N   UNL     1      -3.558  -0.529   0.630  0.00  0.00    +0.000 N 
ATOM     15  O   UNL     1      -3.172  -0.147   1.736  0.00  0.00    +0.000 OA
ATOM     16  O   UNL     1      -4.531  -1.216   0.327  0.00  0.00    +0.000 OA
ENDBRANCH  13  14
ENDBRANCH   8  13
TORSDOF 4
