REMARK  Name = 
REMARK  2 active torsions:
REMARK  status: ('A' for Active; 'I' for Inactive)
REMARK    1  A    between atoms: C_1  and  N_2
REMARK    2  A    between atoms: C_6  and  C_7
REMARK                            x       y       z     vdW  Elec       q    Type
REMARK                         _______ _______ _______ _____ _____    ______ ____
ROOT
ATOM      1  C   UNL     1      -1.404  -1.491  -0.115  0.00  0.00    +0.000 C 
ATOM      2  N   UNL     1      -1.255  -0.168  -0.732  0.00  0.00    +0.000 NA
ATOM      3  C   UNL     1      -2.487   0.621  -0.552  0.00  0.00    +0.000 C 
ATOM      4  C   UNL     1      -2.351   1.339   0.786  0.00  0.00    +0.000 C 
ATOM      5  C   UNL     1      -0.882   1.205   1.170  0.00  0.00    +0.000 C 
ATOM      6  C   UNL     1      -0.207   0.673  -0.098  0.00  0.00    +0.000 C 
ENDROOT
BRANCH   6   7
ATOM      7  C   UNL     1       1.158   0.040   0.031  0.00  0.00    +0.000 A 
ATOM      8  C   UNL     1       1.884  -0.018   1.224  0.00  0.00    +0.000 A 
ATOM      9  C   UNL     1       3.154  -0.593   1.242  0.00  0.00    +0.000 A 
ATOM     10  C   UNL     1       3.670  -1.088   0.057  0.00  0.00    +0.000 A 
ATOM     11  N   UNL     1       3.014  -1.042  -1.119  0.00  0.00    +0.000 NA
ATOM     12  C   UNL     1       1.782  -0.481  -1.104  0.00  0.00    +0.000 A 
ENDBRANCH   6   7
TORSDOF 1
