REMARK  Name = 
REMARK  7 active torsions:
REMARK  status: ('A' for Active; 'I' for Inactive)
REMARK    1  A    between atoms: C_1  and  O_2
REMARK    2  A    between atoms: O_2  and  C_3
REMARK    3  A    between atoms: C_9  and  C_10
REMARK    4  A    between atoms: C_10  and  C_11
REMARK    5  A    between atoms: C_11  and  O_13
REMARK    6  A    between atoms: C_14  and  C_15
REMARK    7  A    between atoms: C_17  and  C_19
REMARK                            x       y       z     vdW  Elec       q    Type
REMARK                         _______ _______ _______ _____ _____    ______ ____
ROOT
ATOM      1  C   UNL     1      -2.384  -1.737  -0.282  0.00  0.00    +0.000 A 
ATOM      2  C   UNL     1      -1.186  -2.227   0.219  0.00  0.00    +0.000 A 
ATOM      3  C   UNL     1      -0.081  -1.384   0.398  0.00  0.00    +0.000 A 
ATOM      4  C   UNL     1      -0.184  -0.023   0.041  0.00  0.00    +0.000 A 
ATOM      5  C   UNL     1      -1.399   0.496  -0.412  0.00  0.00    +0.000 A 
ATOM      6  C   UNL     1      -2.495  -0.378  -0.590  0.00  0.00    +0.000 A 
ATOM      7  C   UNL     1      -1.243   1.904  -0.566  0.00  0.00    +0.000 A 
ATOM      8  C   UNL     1       0.059   2.214  -0.200  0.00  0.00    +0.000 A 
ATOM      9  C   UNL     1       0.714   3.557  -0.135  0.00  0.00    +0.000 C 
ATOM     10  N   UNL     1       0.744   1.026   0.079  0.00  0.00    +0.000 N 
ATOM     11  C   UNL     1       2.135   0.912   0.351  0.00  0.00    +0.000 C 
ATOM     12  O   UNL     1       2.735   1.907   0.756  0.00  0.00    +0.000 OA
ENDROOT
BRANCH  11  13
ATOM     13  C   UNL     1       2.947  -0.308   0.146  0.00  0.00    +0.000 A 
ATOM     14  C   UNL     1       3.876  -0.680   1.125  0.00  0.00    +0.000 A 
ATOM     15  C   UNL     1       4.671  -1.812   0.936  0.00  0.00    +0.000 A 
ATOM     16  C   UNL     1       4.547  -2.557  -0.237  0.00  0.00    +0.000 A 
ATOM     17 CL   UNL     1       5.525  -3.953  -0.469  0.00  0.00    +0.000 Cl
ATOM     18  C   UNL     1       3.641  -2.176  -1.227  0.00  0.00    +0.000 A 
ATOM     19  C   UNL     1       2.844  -1.044  -1.042  0.00  0.00    +0.000 A 
ENDBRANCH  11  13
BRANCH   1  21
ATOM     20  C   UNL     1      -3.478  -3.847  -0.180  0.00  0.00    +0.000 C 
ATOM     21  O   UNL     1      -3.523  -2.463  -0.503  0.00  0.00    +0.000 OA
ENDBRANCH   1  21
BRANCH   7  22
ATOM     22  C   UNL     1      -2.314   2.858  -1.011  0.00  0.00    +0.000 C 
BRANCH  22  23
ATOM     23  C   UNL     1      -3.126   3.414   0.135  0.00  0.00    +0.000 C 
ATOM     24  O   UNL     1      -2.954   3.273   1.334  0.00  0.00    +0.000 OA
BRANCH  23  25
ATOM     25  O   UNL     1      -4.156   4.172  -0.306  0.00  0.00    +0.000 OA
ATOM     26  H   UNL     1      -4.590   4.469   0.522  0.00  0.00    +0.000 HD
ENDBRANCH  23  25
ENDBRANCH  22  23
ENDBRANCH   7  22
TORSDOF 5
