REMARK  Name = 
REMARK  13 active torsions:
REMARK  status: ('A' for Active; 'I' for Inactive)
REMARK    1  A    between atoms: C_1  and  O_2
REMARK    2  A    between atoms: O_2  and  C_3
REMARK    3  A    between atoms: C_3  and  C_4
REMARK    4  A    between atoms: C_4  and  C_5
REMARK    5  A    between atoms: C_8  and  O_9
REMARK    6  A    between atoms: O_9  and  C_10
REMARK    7  A    between atoms: C_10  and  C_11
REMARK    8  A    between atoms: C_11  and  O_12
REMARK    9  A    between atoms: C_11  and  C_13
REMARK   10  A    between atoms: C_13  and  N_14
REMARK   11  A    between atoms: N_14  and  C_15
REMARK   12  A    between atoms: C_15  and  C_16
REMARK   13  A    between atoms: C_15  and  C_17
REMARK                            x       y       z     vdW  Elec       q    Type
REMARK                         _______ _______ _______ _____ _____    ______ ____
ROOT
ATOM      1  O   UNL     1      -0.211  -1.104   1.522  0.00  0.00    +0.000 OA
ENDROOT
BRANCH   1   5
ATOM      2  C   UNL     1       3.272   0.581  -0.065  0.00  0.00    +0.000 A 
ATOM      3  C   UNL     1       2.859  -0.720  -0.368  0.00  0.00    +0.000 A 
ATOM      4  C   UNL     1       1.689  -1.239   0.191  0.00  0.00    +0.000 A 
ATOM      5  C   UNL     1       0.908  -0.471   1.057  0.00  0.00    +0.000 A 
ATOM      6  C   UNL     1       1.314   0.826   1.363  0.00  0.00    +0.000 A 
ATOM      7  C   UNL     1       2.488   1.349   0.805  0.00  0.00    +0.000 A 
BRANCH   2   8
ATOM      8  C   UNL     1       4.536   1.153  -0.669  0.00  0.00    +0.000 C 
BRANCH   8   9
ATOM      9  C   UNL     1       5.815   0.488  -0.145  0.00  0.00    +0.000 C 
BRANCH   9  11
ATOM     10  C   UNL     1       6.680  -0.721  -2.006  0.00  0.00    +0.000 C 
ATOM     11  O   UNL     1       6.053  -0.794  -0.732  0.00  0.00    +0.000 OA
ENDBRANCH   9  11
ENDBRANCH   8   9
ENDBRANCH   2   8
ENDBRANCH   1   5
BRANCH   1  12
ATOM     12  C   UNL     1      -1.103  -0.382   2.370  0.00  0.00    +0.000 C 
BRANCH  12  13
ATOM     13  C   UNL     1      -2.080   0.489   1.574  0.00  0.00    +0.000 C 
BRANCH  13  14
ATOM     14  O   UNL     1      -2.942   1.191   2.480  0.00  0.00    +0.000 OA
ATOM     15  H   UNL     1      -3.749   1.377   1.953  0.00  0.00    +0.000 HD
ENDBRANCH  13  14
BRANCH  13  16
ATOM     16  C   UNL     1      -2.942  -0.349   0.607  0.00  0.00    +0.000 C 
BRANCH  16  17
ATOM     17  N   UNL     1      -3.948   0.533  -0.024  0.00  0.00    +0.000 NA
ATOM     18  H   UNL     1      -3.447   1.255  -0.547  0.00  0.00    +0.000 HD
BRANCH  17  19
ATOM     19  C   UNL     1      -4.824  -0.196  -0.956  0.00  0.00    +0.000 C 
ATOM     20  C   UNL     1      -5.842  -1.065  -0.216  0.00  0.00    +0.000 C 
ATOM     21  C   UNL     1      -5.561   0.827  -1.826  0.00  0.00    +0.000 C 
ENDBRANCH  17  19
ENDBRANCH  16  17
ENDBRANCH  13  16
ENDBRANCH  12  13
ENDBRANCH   1  12
TORSDOF 10
