REMARK  Name = 
REMARK  2 active torsions:
REMARK  status: ('A' for Active; 'I' for Inactive)
REMARK    1  A    between atoms: C_1  and  O_2
REMARK    2  A    between atoms: O_2  and  C_3
REMARK                            x       y       z     vdW  Elec       q    Type
REMARK                         _______ _______ _______ _____ _____    ______ ____
ROOT
ATOM      1  C   UNL     1      -0.166   0.929  -0.341  0.00  0.00    +0.000 A 
ATOM      2  C   UNL     1      -1.282   0.088  -0.466  0.00  0.00    +0.000 A 
ATOM      3  O   UNL     1      -2.540   0.441  -0.870  0.00  0.00    +0.000 OA
ATOM      4  C   UNL     1      -3.309  -0.676  -0.847  0.00  0.00    +0.000 A 
ATOM      5  C   UNL     1      -2.573  -1.759  -0.431  0.00  0.00    +0.000 A 
ATOM      6  C   UNL     1      -1.259  -1.279  -0.181  0.00  0.00    +0.000 A 
ATOM      7  C   UNL     1      -0.058  -1.870   0.257  0.00  0.00    +0.000 A 
ATOM      8  C   UNL     1       1.082  -1.067   0.395  0.00  0.00    +0.000 A 
ATOM      9  C   UNL     1       2.345  -1.633   0.845  0.00  0.00    +0.000 A 
ATOM     10  C   UNL     1       3.418  -0.848   0.969  0.00  0.00    +0.000 A 
ATOM     11  C   UNL     1       3.383   0.593   0.667  0.00  0.00    +0.000 A 
ATOM     12  O   UNL     1       4.388   1.282   0.793  0.00  0.00    +0.000 OA
ATOM     13  O   UNL     1       2.169   1.107   0.241  0.00  0.00    +0.000 OA
ATOM     14  C   UNL     1       1.011   0.296   0.099  0.00  0.00    +0.000 A 
ENDROOT
BRANCH   1  16
ATOM     15  C   UNL     1      -1.276   2.921  -1.040  0.00  0.00    +0.000 C 
ATOM     16  O   UNL     1      -0.085   2.286  -0.596  0.00  0.00    +0.000 OA
ENDBRANCH   1  16
TORSDOF 1
